REMARK  Name = 1OYT-FSN.pdb
REMARK  4 active torsions:
REMARK  status: ('A' for Active; 'I' for Inactive)
REMARK    1  A    between atoms: C3_3  and  C4_4
REMARK    2  A    between atoms: C7_7  and  C10_10
REMARK    3  A    between atoms: N19_19  and  C23_23
REMARK    4  A    between atoms: C23_23  and  C24_24
REMARK                            x       y       z     vdW  Elec       q    Type
REMARK                         _______ _______ _______ _____ _____    ______ ____
ROOT
ATOM      1  C10 FSN H 501      15.863 -11.337  20.194  0.00  0.00    +0.000 C 
ATOM      2  N11 FSN H 501      15.799 -12.440  19.140  0.00  0.00    +0.000 NA
ATOM      3  C12 FSN H 501      14.969 -11.997  17.983  0.00  0.00    +0.000 C 
ATOM      4  C13 FSN H 501      15.891 -12.193  16.736  0.00  0.00    +0.000 C 
ATOM      5  C14 FSN H 501      17.251 -11.672  17.223  0.00  0.00    +0.000 C 
ATOM      6  C15 FSN H 501      17.217 -12.198  18.600  0.00  0.00    +0.000 C 
ATOM      7  C16 FSN H 501      18.245 -11.812  19.663  0.00  0.00    +0.000 C 
ATOM      8  C17 FSN H 501      19.064 -12.906  20.178  0.00  0.00    +0.000 C 
ATOM      9  O18 FSN H 501      20.042 -13.392  19.632  0.00  0.00    +0.000 OA
ATOM     10  N19 FSN H 501      18.531 -13.329  21.430  0.00  0.00    +0.000 N 
ATOM     11  C20 FSN H 501      17.409 -12.545  21.780  0.00  0.00    +0.000 C 
ATOM     12  O21 FSN H 501      16.695 -12.816  22.729  0.00  0.00    +0.000 OA
ATOM     13  C22 FSN H 501      17.247 -11.443  20.807  0.00  0.00    +0.000 C 
ENDROOT
BRANCH   1  17
ATOM     14  C4  FSN H 501      12.524 -11.044  22.837  0.00  0.00    +0.000 A 
ATOM     15  C5  FSN H 501      13.270  -9.890  22.573  0.00  0.00    +0.000 A 
ATOM     16  C6  FSN H 501      14.356  -9.961  21.695  0.00  0.00    +0.000 A 
ATOM     17  C7  FSN H 501      14.670 -11.204  21.092  0.00  0.00    +0.000 A 
ATOM     18  C8  FSN H 501      13.928 -12.350  21.361  0.00  0.00    +0.000 A 
ATOM     19  C9  FSN H 501      12.851 -12.291  22.235  0.00  0.00    +0.000 A 
BRANCH  14  22
ATOM     20  N1  FSN H 501      10.552 -12.064  23.887  0.00  0.00    +0.000 N 
ATOM     21  N2  FSN H 501      11.079  -9.910  24.485  0.00  0.00    +0.000 N 
ATOM     22  C3  FSN H 501      11.383 -11.001  23.737  0.00  0.00    +0.000 C 
ATOM     23  H01 FSN H 501       9.768 -12.007  24.522  0.00  0.00    +0.000 HD
ATOM     24  H02 FSN H 501      10.717 -12.912  23.364  0.00  0.00    +0.000 HD
ATOM     25  H03 FSN H 501      11.654  -9.082  24.427  0.00  0.00    +0.000 HD
ATOM     26  H04 FSN H 501      10.277  -9.926  25.099  0.00  0.00    +0.000 HD
ENDBRANCH  14  22
ENDBRANCH   1  17
BRANCH  10  27
ATOM     27  C23 FSN H 501      18.867 -14.543  22.173  0.00  0.00    +0.000 C 
BRANCH  27  28
ATOM     28  C24 FSN H 501      19.788 -14.211  23.315  0.00  0.00    +0.000 A 
ATOM     29  C25 FSN H 501      21.174 -14.052  23.069  0.00  0.00    +0.000 A 
ATOM     30  C26 FSN H 501      22.058 -13.774  24.142  0.00  0.00    +0.000 A 
ATOM     31  C30 FSN H 501      21.475 -13.667  25.413  0.00  0.00    +0.000 A 
ATOM     32  C31 FSN H 501      20.106 -13.806  25.677  0.00  0.00    +0.000 A 
ATOM     33  C32 FSN H 501      19.251 -14.080  24.610  0.00  0.00    +0.000 A 
ATOM     34  F29 FSN H 501      22.247 -13.424  26.487  0.00  0.00    +0.000 F 
ENDBRANCH  27  28
ENDBRANCH  10  27
TORSDOF 4
