@<TRIPOS>MOLECULE
CHEMBL543706
   42    44     0     0     0
SMALL
USER_CHARGES

@<TRIPOS>ATOM
      1 C1          2.0395    1.3068    0.4153 C.ar      1 <0>        -0.0983
      2 C2          1.0019    2.0967   -0.0367 C.ar      1 <0>        -0.0791
      3 C3         -0.1467    1.5151   -0.5457 C.ar      1 <0>        -0.0285
      4 C4         -0.2627    0.1411   -0.6048 C.ar      1 <0>        -0.0468
      5 C5          0.7756   -0.6649   -0.1520 C.ar      1 <0>         0.1566
      6 C6          1.9342   -0.0783    0.3608 C.ar      1 <0>         0.1853
      7 N1          2.9850   -0.8684    0.8187 N.am      1 <0>        -0.6350
      8 C7          2.8914   -2.2127    0.7695 C.2       1 <0>         0.5107
      9 C8          1.6539   -2.8393    0.2212 C.2       1 <0>         0.5106
     10 N2          0.6511   -2.0500   -0.2145 N.am      1 <0>        -0.6348
     11 O1          1.5501   -4.0483    0.1683 O.2       1 <0>        -0.4237
     12 O2          3.8056   -2.9063    1.1674 O.2       1 <0>        -0.4218
     13 N3         -1.2547    2.3700   -1.0278 N.pl3     1 <0>         0.0346
     14 O3         -2.2968    1.8679   -1.3792 O.2       1 <0>        -0.0837
     15 O4         -1.1176    3.5705   -1.0701 O.3       1 <0>        -0.2076
     16 C9          1.1195    3.5979    0.0245 C.3       1 <0>         0.0259
     17 N4          1.4508    4.1178   -1.3089 N.4       1 <0>        -0.3581
     18 C10         2.7652    3.5817   -1.7129 C.3       1 <0>        -0.0157
     19 C11         2.8366    3.5886   -3.2193 C.3       1 <0>        -0.1487
     20 C12         3.5470    4.8505   -3.7440 C.3       1 <0>        -0.1299
     21 C13         3.1318    6.1099   -2.9569 C.3       1 <0>        -0.1395
     22 C14         1.6549    6.1389   -2.6571 C.3       1 <0>        -0.1345
     23 C15         1.4105    5.5126   -1.2682 C.3       1 <0>        -0.0321
     24 H1          2.9354    1.7650    0.8075 H         1 <0>         0.1746
     25 H2         -1.1606   -0.3081   -1.0027 H         1 <0>         0.1826
     26 H3          0.1721    4.0233    0.3553 H         1 <0>         0.1620
     27 H4          1.9062    3.8723    0.7272 H         1 <0>         0.1500
     28 H5          3.5585    4.2078   -1.3045 H         1 <0>         0.1395
     29 H6          2.8749    2.5618   -1.3445 H         1 <0>         0.1270
     30 H7          3.3830    2.7069   -3.5542 H         1 <0>         0.1067
     31 H8          1.8252    3.5547   -3.6242 H         1 <0>         0.0793
     32 H9          4.6247    4.7147   -3.6541 H         1 <0>         0.0809
     33 H10         3.2943    4.9892   -4.7952 H         1 <0>         0.0825
     34 H11         3.6834    6.1366   -2.0171 H         1 <0>         0.0698
     35 H12         3.3908    6.9927   -3.5413 H         1 <0>         0.0876
     36 H13         1.3026    7.1704   -2.6590 H         1 <0>         0.1127
     37 H14         1.1179    5.5675   -3.4143 H         1 <0>         0.0865
     38 H15         0.4329    5.8285   -0.9041 H         1 <0>         0.1389
     39 H16         2.1759    5.8693   -0.5790 H         1 <0>         0.1286
     40 H17        -0.1578   -2.4479   -0.5726 H         1 <0>         0.4356
     41 H18         3.7857   -0.4513    1.1732 H         1 <0>         0.4334
     42 H19         0.7555    3.7930   -1.9640 H         1 <0>         0.4159
@<TRIPOS>BOND
     1    1    6 ar
     2    1    2 ar
     3    1   24 1
     4    2    3 ar
     5    2   16 1
     6    3    4 ar
     7    3   13 1
     8    4    5 ar
     9    4   25 1
    10    5   10 1
    11    5    6 ar
    12    6    7 1
    13    7    8 am
    14    7   41 1
    15    8    9 1
    16    8   12 2
    17    9   10 am
    18    9   11 2
    19   10   40 1
    20   13   14 2
    21   13   15 1
    22   16   17 1
    23   16   26 1
    24   16   27 1
    25   17   23 1
    26   17   18 1
    27   17   42 1
    28   18   19 1
    29   18   28 1
    30   18   29 1
    31   19   20 1
    32   19   30 1
    33   19   31 1
    34   20   21 1
    35   20   32 1
    36   20   33 1
    37   21   22 1
    38   21   34 1
    39   21   35 1
    40   22   23 1
    41   22   36 1
    42   22   37 1
    43   23   38 1
    44   23   39 1
@<TRIPOS>MOLECULE
CHEMBL543706
   41    43     0     0     0
SMALL
USER_CHARGES

@<TRIPOS>ATOM
      1 C1          1.8144    1.1570    0.6919 C.ar      1 <0>        -0.1205
      2 C2          1.0415    2.1496    0.1245 C.ar      1 <0>         0.0014
      3 C3         -0.1234    1.8264   -0.5503 C.ar      1 <0>        -0.0176
      4 C4         -0.5202    0.5092   -0.6606 C.ar      1 <0>        -0.0556
      5 C5          0.2499   -0.4994   -0.0927 C.ar      1 <0>         0.1196
      6 C6          1.4249   -0.1735    0.5874 C.ar      1 <0>         0.1735
      7 N1          2.2097   -1.1691    1.1624 N.am      1 <0>        -0.6338
      8 C7          1.8394   -2.4621    1.0659 C.2       1 <0>         0.5114
      9 C8          0.5845   -2.8104    0.3388 C.2       1 <0>         0.5112
     10 N2         -0.1572   -1.8257   -0.2077 N.am      1 <0>        -0.6320
     11 O1          0.2337   -3.9691    0.2408 O.2       1 <0>        -0.4516
     12 O2          2.5211   -3.3344    1.5656 O.2       1 <0>        -0.4480
     13 N3         -0.9464    2.8976   -1.1554 N.pl3     1 <0>         0.0368
     14 O3         -2.0142    2.6301   -1.6553 O.2       1 <0>        -0.1821
     15 O4         -0.5509    4.0400   -1.1497 O.3       1 <0>        -0.1071
     16 C9          1.4667    3.5907    0.2403 C.3       1 <0>         0.0898
     17 N4          1.9959    4.0503   -1.0507 N.3       1 <0>        -0.5361
     18 C10         3.2554    3.3559   -1.3837 C.3       1 <0>         0.0587
     19 C11         3.3587    3.2702   -2.8859 C.3       1 <0>        -0.1173
     20 C12         4.1907    4.4278   -3.4638 C.3       1 <0>        -0.1179
     21 C13         3.8775    5.7670   -2.7671 C.3       1 <0>        -0.1221
     22 C14         2.4039    5.9572   -2.5123 C.3       1 <0>        -0.1159
     23 C15         2.0674    5.4456   -1.0946 C.3       1 <0>         0.0799
     24 H1          2.7246    1.4135    1.2136 H         1 <0>         0.1604
     25 H2         -1.4297    0.2618   -1.1880 H         1 <0>         0.1687
     26 H3          0.6082    4.2016    0.5193 H         1 <0>         0.1091
     27 H4          2.2402    3.6811    1.0030 H         1 <0>         0.0543
     28 H5          4.1015    3.9176   -0.9878 H         1 <0>         0.0470
     29 H6          3.2467    2.3527   -0.9574 H         1 <0>         0.0678
     30 H7          3.8284    2.3247   -3.1569 H         1 <0>         0.0591
     31 H8          2.3569    3.3039   -3.3139 H         1 <0>         0.0744
     32 H9          5.2494    4.2013   -3.3371 H         1 <0>         0.0564
     33 H10         3.9750    4.5228   -4.5280 H         1 <0>         0.0599
     34 H11         4.4069    5.8010   -1.8148 H         1 <0>         0.0554
     35 H12         4.2345    6.5830   -3.3955 H         1 <0>         0.0587
     36 H13         2.1547    7.0158   -2.5866 H         1 <0>         0.0690
     37 H14         1.8309    5.3939   -3.2488 H         1 <0>         0.0761
     38 H15         1.1080    5.8604   -0.7856 H         1 <0>         0.0829
     39 H16         2.8387    5.7837   -0.4025 H         1 <0>         0.0180
     40 H17        -0.9751   -2.0419   -0.6823 H         1 <0>         0.4291
     41 H18         3.0243   -0.9324    1.6329 H         1 <0>         0.4288
@<TRIPOS>BOND
     1    1    6 ar
     2    1    2 ar
     3    1   24 1
     4    2    3 ar
     5    2   16 1
     6    3    4 ar
     7    3   13 1
     8    4    5 ar
     9    4   25 1
    10    5   10 1
    11    5    6 ar
    12    6    7 1
    13    7    8 am
    14    7   41 1
    15    8    9 1
    16    8   12 2
    17    9   10 am
    18    9   11 2
    19   10   40 1
    20   13   14 2
    21   13   15 1
    22   16   17 1
    23   16   26 1
    24   16   27 1
    25   17   23 1
    26   17   18 1
    27   18   19 1
    28   18   28 1
    29   18   29 1
    30   19   20 1
    31   19   30 1
    32   19   31 1
    33   20   21 1
    34   20   32 1
    35   20   33 1
    36   21   22 1
    37   21   34 1
    38   21   35 1
    39   22   23 1
    40   22   36 1
    41   22   37 1
    42   23   38 1
    43   23   39 1
@<TRIPOS>MOLECULE
CHEMBL297442
   41    44     0     0     0
SMALL
USER_CHARGES

@<TRIPOS>ATOM
      1 C1         -0.0166    1.3741    0.0096 C.ar      1 <0>        -0.1309
      2 C2          1.1701    2.0876    0.0021 C.ar      1 <0>        -0.0742
      3 C3          2.3841    1.4255   -0.0131 C.ar      1 <0>        -0.1561
      4 C4          2.4210    0.0439   -0.0209 C.ar      1 <0>         0.1269
      5 C5          1.2244   -0.6837   -0.0133 C.ar      1 <0>        -0.1133
      6 C6          0.0021   -0.0041    0.0020 C.ar      1 <0>        -0.0712
      7 C7          1.2529   -2.1547   -0.0220 C.2       1 <0>        -0.0004
      8 C8          0.0986   -2.8514   -0.0147 C.2       1 <0>        -0.1553
      9 C9          0.1270   -4.3150   -0.0234 C.2       1 <0>         0.4459
     10 N1          1.2922   -4.9197   -0.0328 N.2       1 <0>        -0.5122
     11 C10         1.3917   -6.2626   -0.0407 C.ar      1 <0>         0.1552
     12 C11         2.6357   -6.9024   -0.0502 C.ar      1 <0>        -0.0803
     13 C12         2.6984   -8.2667   -0.0576 C.ar      1 <0>        -0.1016
     14 C13         1.5396   -9.0363   -0.0557 C.ar      1 <0>         0.0815
     15 C14         0.2979   -8.4340   -0.0464 C.ar      1 <0>        -0.0739
     16 C15         0.2120   -7.0428   -0.0387 C.ar      1 <0>        -0.1742
     17 C16        -1.0829   -6.3478   -0.0281 C.2       1 <0>         0.5565
     18 O1         -2.1313   -6.9665   -0.0256 O.2       1 <0>        -0.4886
     19 N2         -1.0667   -4.9946   -0.0156 N.am      1 <0>        -0.4981
     20 C17        -2.2729   -4.2836   -0.0002 C.ar      1 <0>         0.1111
     21 C18        -2.8869   -3.9287   -1.1942 C.ar      1 <0>        -0.0857
     22 C19        -4.0765   -3.2275   -1.1758 C.ar      1 <0>        -0.1039
     23 C20        -4.6569   -2.8779    0.0299 C.ar      1 <0>        -0.0881
     24 C21        -4.0490   -3.2292    1.2209 C.ar      1 <0>        -0.1025
     25 C22        -2.8614   -3.9365    1.2099 C.ar      1 <0>        -0.0203
     26 Cl1        -2.1024   -4.3842    2.7056 Cl        1 <0>        -0.0486
     27 F1          1.6304  -10.3842   -0.0636 F         1 <0>        -0.1309
     28 F2          3.6073   -0.6024   -0.0361 F         1 <0>        -0.1289
     29 H1         -0.9601    1.8994    0.0259 H         1 <0>         0.1350
     30 H2          1.1475    3.1673    0.0078 H         1 <0>         0.1373
     31 H3          3.3052    1.9892   -0.0192 H         1 <0>         0.1413
     32 H4         -0.9251   -0.5579    0.0079 H         1 <0>         0.1355
     33 H5          2.1985   -2.6764   -0.0342 H         1 <0>         0.1498
     34 H6         -0.8470   -2.3297   -0.0025 H         1 <0>         0.1404
     35 H7          3.5444   -6.3187   -0.0521 H         1 <0>         0.1529
     36 H8          3.6616   -8.7551   -0.0653 H         1 <0>         0.1497
     37 H9         -0.5992   -9.0352   -0.0450 H         1 <0>         0.1516
     38 H10        -2.4342   -4.2006   -2.1363 H         1 <0>         0.1383
     39 H11        -4.5541   -2.9514   -2.1043 H         1 <0>         0.1422
     40 H12        -5.5868   -2.3289    0.0410 H         1 <0>         0.1430
     41 H13        -4.5046   -2.9544    2.1608 H         1 <0>         0.1453
@<TRIPOS>BOND
     1    1    6 ar
     2    1    2 ar
     3    1   29 1
     4    2    3 ar
     5    2   30 1
     6    3    4 ar
     7    3   31 1
     8    4    5 ar
     9    4   28 1
    10    5    6 ar
    11    5    7 1
    12    6   32 1
    13    7    8 2
    14    7   33 1
    15    8    9 1
    16    8   34 1
    17    9   19 1
    18    9   10 2
    19   10   11 1
    20   11   16 ar
    21   11   12 ar
    22   12   13 ar
    23   12   35 1
    24   13   14 ar
    25   13   36 1
    26   14   15 ar
    27   14   27 1
    28   15   16 ar
    29   15   37 1
    30   16   17 1
    31   17   18 2
    32   17   19 am
    33   19   20 1
    34   20   25 ar
    35   20   21 ar
    36   21   22 ar
    37   21   38 1
    38   22   23 ar
    39   22   39 1
    40   23   24 ar
    41   23   40 1
    42   24   25 ar
    43   24   41 1
    44   25   26 1
@<TRIPOS>MOLECULE
CHEMBL310897
   25    26     0     0     0
SMALL
USER_CHARGES

@<TRIPOS>ATOM
      1 C1         -0.0157    1.3038    0.0092 C.2       1 <0>         0.0406
      2 C2          1.1578    1.9988    0.0017 C.2       1 <0>        -0.1930
      3 S1          2.3367    0.6538   -0.0167 S.3       1 <0>         0.0272
      4 C3          1.1450   -0.6792   -0.0125 C.2       1 <0>         0.1588
      5 N1          0.0021   -0.0041    0.0020 N.2       1 <0>        -0.4419
      6 C4          1.3706   -2.1342   -0.0225 C.2       1 <0>         0.1254
      7 C5          0.3986   -3.0899   -0.0183 C.2       1 <0>        -0.1539
      8 C6          1.0226   -4.3495   -0.0316 C.2       1 <0>         0.5435
      9 N2          2.3555   -4.1420   -0.0435 N.am      1 <0>        -0.5729
     10 O1          2.5695   -2.7419   -0.0431 O.3       1 <0>        -0.0507
     11 O2          0.4608   -5.4334   -0.0318 O.2       1 <0>        -0.4819
     12 C7         -1.0874   -2.8395   -0.0023 C.3       1 <0>        -0.0300
     13 C8         -1.6253   -2.8706   -1.4343 C.3       1 <0>         0.0361
     14 C9         -3.0859   -2.4995   -1.4305 C.2       1 <0>         0.4688
     15 O3         -3.4186   -1.3325   -1.5480 O.co2     1 <0>        -0.6947
     16 O4         -3.9348   -3.3663   -1.3099 O.co2     1 <0>        -0.6995
     17 N3         -1.4648   -4.2216   -1.9884 N.3       1 <0>        -0.8282
     18 H1         -0.9574    1.8322    0.0255 H         1 <0>         0.1800
     19 H2          1.3280    3.0653    0.0055 H         1 <0>         0.2039
     20 H3         -1.5798   -3.6125    0.5876 H         1 <0>         0.0761
     21 H4         -1.2866   -1.8631    0.4395 H         1 <0>         0.0976
     22 H5         -1.0711   -2.1588   -2.0461 H         1 <0>         0.0660
     23 H6         -1.9696   -4.9003   -1.4384 H         1 <0>         0.3427
     24 H7         -1.7532   -4.2527   -2.9548 H         1 <0>         0.3254
     25 H8          3.0423   -4.8270   -0.0538 H         1 <0>         0.4544
@<TRIPOS>BOND
     1    1    5 1
     2    1    2 2
     3    1   18 1
     4    2    3 1
     5    2   19 1
     6    3    4 1
     7    4    5 2
     8    4    6 1
     9    6    7 2
    10    6   10 1
    11    7    8 1
    12    7   12 1
    13    8    9 am
    14    8   11 2
    15    9   10 1
    16    9   25 1
    17   12   13 1
    18   12   20 1
    19   12   21 1
    20   13   14 1
    21   13   17 1
    22   13   22 1
    23   14   15 2
    24   14   16 1
    25   17   23 1
    26   17   24 1
@<TRIPOS>MOLECULE
CHEMBL310897
   25    26     0     0     0
SMALL
USER_CHARGES

@<TRIPOS>ATOM
      1 C1         -0.0157    1.3038    0.0092 C.2       1 <0>         0.0372
      2 C2          1.1578    1.9988    0.0017 C.2       1 <0>        -0.1869
      3 S1          2.3367    0.6538   -0.0167 S.3       1 <0>         0.0453
      4 C3          1.1450   -0.6792   -0.0125 C.2       1 <0>         0.1491
      5 N1          0.0021   -0.0041    0.0020 N.2       1 <0>        -0.4488
      6 C4          1.3706   -2.1342   -0.0225 C.2       1 <0>         0.1347
      7 C5          0.3986   -3.0899   -0.0183 C.2       1 <0>        -0.1800
      8 C6          1.0226   -4.3495   -0.0316 C.2       1 <0>         0.5351
      9 N2          2.3555   -4.1420   -0.0435 N.am      1 <0>        -0.5677
     10 O1          2.5695   -2.7419   -0.0431 O.3       1 <0>        -0.0459
     11 O2          0.4608   -5.4334   -0.0318 O.2       1 <0>        -0.4892
     12 C7         -1.0874   -2.8395   -0.0023 C.3       1 <0>        -0.0732
     13 C8         -1.6253   -2.8706   -1.4343 C.3       1 <0>         0.0381
     14 C9         -3.1267   -2.7429   -1.4099 C.2       1 <0>         0.5058
     15 O3         -3.6583   -1.7226   -1.8132 O.co2     1 <0>        -0.6823
     16 O4         -3.8096   -3.6599   -0.9867 O.co2     1 <0>        -0.7006
     17 N3         -1.0513   -1.7543   -2.1974 N.3       1 <0>        -0.8172
     18 H1         -0.9574    1.8322    0.0255 H         1 <0>         0.1822
     19 H2          1.3280    3.0653    0.0055 H         1 <0>         0.2057
     20 H3         -1.5798   -3.6125    0.5876 H         1 <0>         0.0888
     21 H4         -1.2866   -1.8631    0.4395 H         1 <0>         0.0926
     22 H5         -1.3485   -3.8135   -1.9060 H         1 <0>         0.0697
     23 H6         -1.2938   -0.8683   -1.7799 H         1 <0>         0.3472
     24 H7         -0.0506   -1.8516   -2.2832 H         1 <0>         0.3031
     25 H8          3.0423   -4.8270   -0.0538 H         1 <0>         0.4573
@<TRIPOS>BOND
     1    1    5 1
     2    1    2 2
     3    1   18 1
     4    2    3 1
     5    2   19 1
     6    3    4 1
     7    4    5 2
     8    4    6 1
     9    6    7 2
    10    6   10 1
    11    7    8 1
    12    7   12 1
    13    8    9 am
    14    8   11 2
    15    9   10 1
    16    9   25 1
    17   12   13 1
    18   12   20 1
    19   12   21 1
    20   13   14 1
    21   13   17 1
    22   13   22 1
    23   14   15 2
    24   14   16 1
    25   17   23 1
    26   17   24 1
@<TRIPOS>MOLECULE
CHEMBL310286
   23    25     0     0     0
SMALL
USER_CHARGES

@<TRIPOS>ATOM
      1 C1         -0.0167    1.3780    0.0096 C.ar      1 <0>         0.0231
      2 C2          1.1870    2.0810    0.0019 C.ar      1 <0>        -0.2571
      3 C3          2.4156    1.3827   -0.0136 C.ar      1 <0>         0.2536
      4 C4          2.4116   -0.0145   -0.0210 C.ar      1 <0>        -0.1440
      5 C5          1.2150   -0.6946   -0.0132 C.ar      1 <0>         0.0259
      6 C6          0.0021   -0.0041    0.0020 C.ar      1 <0>        -0.0375
      7 N1         -1.2066   -0.7178    0.0102 N.pl3     1 <0>        -0.3893
      8 C7         -2.2635   -0.5347    0.8504 C.2       1 <0>         0.1527
      9 N2         -3.1780   -1.4042    0.5159 N.2       1 <0>        -0.3131
     10 N3         -2.7650   -2.1149   -0.4724 N.2       1 <0>        -0.3153
     11 C8         -1.5673   -1.7327   -0.8242 C.2       1 <0>         0.1591
     12 Cl1         1.2144   -2.4306   -0.0231 Cl        1 <0>        -0.0902
     13 N4          3.5735    2.0874   -0.0213 N.2       1 <0>        -0.6282
     14 C9          3.5790    3.3937   -0.0148 C.2       1 <0>         0.5991
     15 O1          4.7690    4.0315   -0.0237 O.3       1 <0>        -0.6659
     16 N5          2.4411    4.1438    0.0001 N.am      1 <0>        -0.3469
     17 C10         1.2254    3.5498    0.0089 C.2       1 <0>         0.5173
     18 O2          0.2014    4.2079    0.0218 O.2       1 <0>        -0.5773
     19 O3          2.5319    5.5569    0.0068 O.3       1 <0>        -0.6560
     20 H1         -0.9568    1.9092    0.0259 H         1 <0>         0.1305
     21 H2          3.3443   -0.5589   -0.0332 H         1 <0>         0.1374
     22 H3         -2.3319    0.1937    1.6447 H         1 <0>         0.2134
     23 H4         -0.9724   -2.1458   -1.6254 H         1 <0>         0.2087
@<TRIPOS>BOND
     1    1    6 ar
     2    1    2 ar
     3    1   20 1
     4    2   17 1
     5    2    3 ar
     6    3    4 ar
     7    3   13 1
     8    4    5 ar
     9    4   21 1
    10    5    6 ar
    11    5   12 1
    12    6    7 1
    13    7   11 1
    14    7    8 1
    15    8    9 2
    16    8   22 1
    17    9   10 1
    18   10   11 2
    19   11   23 1
    20   13   14 2
    21   14   15 1
    22   14   16 1
    23   16   17 am
    24   16   19 1
    25   17   18 2
@<TRIPOS>MOLECULE
CHEMBL310286
   24    26     0     0     0
SMALL
USER_CHARGES

@<TRIPOS>ATOM
      1 C1         -0.0167    1.3797    0.0096 C.ar      1 <0>         0.0062
      2 C2          1.1865    2.0816    0.0019 C.ar      1 <0>        -0.1653
      3 C3          2.4085    1.3862   -0.0135 C.ar      1 <0>         0.2299
      4 C4          2.4113   -0.0001   -0.0204 C.ar      1 <0>        -0.1500
      5 C5          1.2148   -0.6898   -0.0122 C.ar      1 <0>         0.0238
      6 C6          0.0021   -0.0041    0.0020 C.ar      1 <0>         0.0632
      7 N1         -1.2059   -0.7198    0.0097 N.pl3     1 <0>        -0.4243
      8 C7         -2.2633   -0.5383    0.8495 C.2       1 <0>         0.1656
      9 N2         -3.1762   -1.4094    0.5149 N.2       1 <0>        -0.2952
     10 N3         -2.7617   -2.1196   -0.4730 N.2       1 <0>        -0.2962
     11 C8         -1.5647   -1.7352   -0.8249 C.2       1 <0>         0.1683
     12 Cl1         1.2220   -2.4257   -0.0215 Cl        1 <0>        -0.0424
     13 N4          3.5907    2.1142   -0.0204 N.am      1 <0>        -0.6450
     14 H1          4.4415    1.6485   -0.0313 H         1 <0>         0.4247
     15 C9          3.5675    3.4580   -0.0125 C.2       1 <0>         0.6678
     16 O1          4.6248    4.0583   -0.0190 O.2       1 <0>        -0.5439
     17 N5          2.4272    4.1657    0.0017 N.am      1 <0>        -0.3476
     18 C10         1.2227    3.5546    0.0100 C.2       1 <0>         0.5304
     19 O2          0.1944    4.2035    0.0229 O.2       1 <0>        -0.5112
     20 O3          2.4880    5.5803    0.0088 O.3       1 <0>        -0.6138
     21 H2         -0.9567    1.9112    0.0259 H         1 <0>         0.1599
     22 H3          3.3469   -0.5394   -0.0326 H         1 <0>         0.1567
     23 H4         -2.3330    0.1901    1.6438 H         1 <0>         0.2222
     24 H5         -0.9691   -2.1469   -1.6262 H         1 <0>         0.2160
@<TRIPOS>BOND
     1    1    6 ar
     2    1    2 ar
     3    1   21 1
     4    2   18 1
     5    2    3 ar
     6    3    4 ar
     7    3   13 1
     8    4    5 ar
     9    4   22 1
    10    5    6 ar
    11    5   12 1
    12    6    7 1
    13    7   11 1
    14    7    8 1
    15    8    9 2
    16    8   23 1
    17    9   10 1
    18   10   11 2
    19   11   24 1
    20   13   14 1
    21   13   15 am
    22   15   16 2
    23   15   17 am
    24   17   18 am
    25   17   20 1
    26   18   19 2
@<TRIPOS>MOLECULE
CHEMBL282842
   19    19     0     0     0
SMALL
USER_CHARGES

@<TRIPOS>ATOM
      1 C1         -1.3374    0.8607   -1.5895 C.3       1 <0>        -0.1755
      2 C2         -0.8724    1.7915   -0.4678 C.3       1 <0>        -0.1640
      3 H1         -0.5860    2.8067   -0.7424 H         1 <0>         0.1120
      4 C3          0.0314    0.6505   -0.9390 C.3       1 <0>        -0.1699
      5 H2          0.9124    0.9150   -1.5238 H         1 <0>         0.1029
      6 C4          0.1913   -0.5346   -0.0220 C.2       1 <0>         0.5099
      7 O1         -0.5553   -1.4927   -0.1281 O.co2     1 <0>        -0.7026
      8 O2          1.0673   -0.5354    0.8260 O.co2     1 <0>        -0.6599
      9 C5         -1.5450    1.6424    0.8983 C.3       1 <0>        -0.0178
     10 H3         -1.4696    0.6066    1.2293 H         1 <0>         0.1382
     11 C6         -0.8597    2.5398    1.8963 C.2       1 <0>         0.4942
     12 O3         -1.2106    3.7016    2.0132 O.co2     1 <0>        -0.6934
     13 O4          0.0457    2.1041    2.5869 O.co2     1 <0>        -0.6155
     14 N1         -2.9605    2.0204    0.7911 N.4       1 <0>        -0.6086
     15 H4         -2.1223    0.1419   -1.3542 H         1 <0>         0.0976
     16 H5         -1.3569    1.2636   -2.6022 H         1 <0>         0.0915
     17 H6         -3.0303    2.9792    0.4847 H         1 <0>         0.4259
     18 H7         -3.4194    1.4195    0.1229 H         1 <0>         0.4116
     19 H8         -3.4041    1.9220    1.6920 H         1 <0>         0.4235
@<TRIPOS>BOND
     1    1    4 1
     2    1    2 1
     3    1   15 1
     4    1   16 1
     5    2    3 1
     6    2    4 1
     7    2    9 1
     8    4    5 1
     9    4    6 1
    10    6    7 2
    11    6    8 1
    12    9   10 1
    13    9   11 1
    14    9   14 1
    15   11   12 2
    16   11   13 1
    17   14   17 1
    18   14   18 1
    19   14   19 1
@<TRIPOS>MOLECULE
CHEMBL536466
   45    47     0     0     0
SMALL
USER_CHARGES

@<TRIPOS>ATOM
      1 C1         -0.0166    1.3755    0.0096 C.ar      1 <0>        -0.0210
      2 C2          1.1701    2.0892    0.0021 C.ar      1 <0>        -0.0377
      3 C3          2.3799    1.4261   -0.0135 C.ar      1 <0>        -0.0547
      4 C4          2.4114    0.0358   -0.0217 C.ar      1 <0>         0.1231
      5 C5          1.2153   -0.6836   -0.0142 C.ar      1 <0>         0.1790
      6 C6          0.0021   -0.0041    0.0020 C.ar      1 <0>        -0.0810
      7 C7         -1.2928   -0.7749    0.0108 C.3       1 <0>         0.0918
      8 N1         -1.5770   -1.2393    1.3751 N.3       1 <0>        -0.6829
      9 C8         -2.8350   -1.9965    1.4222 C.3       1 <0>         0.1087
     10 H1         -3.5443   -1.5670    0.7147 H         1 <0>         0.0902
     11 C9         -2.5657   -3.4563    1.0518 C.3       1 <0>        -0.1691
     12 C10        -3.8759   -4.2449    1.1008 C.3       1 <0>        -0.1148
     13 C11        -4.4598   -4.1766    2.5133 C.3       1 <0>        -0.1255
     14 C12        -4.7291   -2.7167    2.8837 C.3       1 <0>        -0.1122
     15 C13        -3.4189   -1.9281    2.8347 C.3       1 <0>        -0.0992
     16 H2         -3.6107   -0.8881    3.0986 H         1 <0>         0.1076
     17 C14        -2.4382   -2.5219    3.8129 C.2       1 <0>         0.5328
     18 O1         -1.3769   -2.9570    3.4191 O.2       1 <0>        -0.5440
     19 N2         -2.7407   -2.5695    5.1254 N.am      1 <0>        -0.8554
     20 N3          1.2259   -2.0756   -0.0227 N.am      1 <0>        -0.6345
     21 C15         2.3977   -2.7427   -0.0380 C.2       1 <0>         0.5114
     22 C16         3.6758   -1.9740   -0.0456 C.2       1 <0>         0.5129
     23 N4          3.6359   -0.6262   -0.0379 N.am      1 <0>        -0.6312
     24 O2          4.7418   -2.5562   -0.0593 O.2       1 <0>        -0.4505
     25 O3          2.4122   -3.9573   -0.0451 O.2       1 <0>        -0.4443
     26 N5          1.1406    3.5691    0.0104 N.pl3     1 <0>         0.0355
     27 O4          0.0817    4.1525    0.0236 O.2       1 <0>        -0.1470
     28 O5          2.1752    4.1945    0.0038 O.3       1 <0>        -0.1535
     29 H3         -0.9602    1.9006    0.0260 H         1 <0>         0.1677
     30 H4          3.3028    1.9869   -0.0196 H         1 <0>         0.1699
     31 H5         -2.1024   -0.1291   -0.3292 H         1 <0>         0.1041
     32 H6         -1.2090   -1.6336   -0.6553 H         1 <0>         0.0480
     33 H7         -0.8113   -1.7875    1.7374 H         1 <0>         0.3578
     34 H8         -2.1497   -3.5050    0.0454 H         1 <0>         0.0569
     35 H9         -1.8564   -3.8858    1.7593 H         1 <0>         0.0960
     36 H10        -4.5852   -3.8155    0.3932 H         1 <0>         0.0635
     37 H11        -3.6841   -5.2850    0.8369 H         1 <0>         0.0642
     38 H12        -5.3932   -4.7384    2.5482 H         1 <0>         0.0688
     39 H13        -3.7505   -4.6061    3.2208 H         1 <0>         0.0615
     40 H14        -5.4383   -2.2872    2.1762 H         1 <0>         0.0792
     41 H15        -5.1450   -2.6680    3.8901 H         1 <0>         0.0708
     42 H16        -3.5896   -2.2216    5.4405 H         1 <0>         0.4015
     43 H17        -2.1095   -2.9517    5.7551 H         1 <0>         0.4017
     44 H18         4.4616   -0.1171   -0.0437 H         1 <0>         0.4296
     45 H19         0.3892   -2.5663   -0.0174 H         1 <0>         0.4242
@<TRIPOS>BOND
     1    1    6 ar
     2    1    2 ar
     3    1   29 1
     4    2    3 ar
     5    2   26 1
     6    3    4 ar
     7    3   30 1
     8    4   23 1
     9    4    5 ar
    10    5    6 ar
    11    5   20 1
    12    6    7 1
    13    7    8 1
    14    7   31 1
    15    7   32 1
    16    8    9 1
    17    8   33 1
    18    9   10 1
    19    9   15 1
    20    9   11 1
    21   11   12 1
    22   11   34 1
    23   11   35 1
    24   12   13 1
    25   12   36 1
    26   12   37 1
    27   13   14 1
    28   13   38 1
    29   13   39 1
    30   14   15 1
    31   14   40 1
    32   14   41 1
    33   15   16 1
    34   15   17 1
    35   17   18 2
    36   17   19 am
    37   19   42 1
    38   19   43 1
    39   20   21 am
    40   20   45 1
    41   21   22 1
    42   21   25 2
    43   22   23 am
    44   22   24 2
    45   23   44 1
    46   26   27 2
    47   26   28 1
@<TRIPOS>MOLECULE
CHEMBL536466
   46    48     0     0     0
SMALL
USER_CHARGES

@<TRIPOS>ATOM
      1 C1         -0.0166    1.3755    0.0096 C.ar      1 <0>        -0.0125
      2 C2          1.1701    2.0892    0.0021 C.ar      1 <0>        -0.0331
      3 C3          2.3799    1.4261   -0.0135 C.ar      1 <0>        -0.0275
      4 C4          2.4114    0.0358   -0.0217 C.ar      1 <0>         0.1376
      5 C5          1.2153   -0.6836   -0.0142 C.ar      1 <0>         0.1918
      6 C6          0.0021   -0.0041    0.0020 C.ar      1 <0>        -0.1660
      7 C7         -1.2928   -0.7749    0.0108 C.3       1 <0>         0.0399
      8 N1         -1.5770   -1.2393    1.3751 N.4       1 <0>        -0.5156
      9 C8         -2.8393   -1.9907    1.3837 C.3       1 <0>         0.0463
     10 H1         -3.6321   -1.3739    0.9605 H         1 <0>         0.1561
     11 C9         -2.6814   -3.2625    0.5478 C.3       1 <0>        -0.1640
     12 C10        -3.9961   -4.0450    0.5567 C.3       1 <0>        -0.1146
     13 C11        -4.3558   -4.4216    1.9954 C.3       1 <0>        -0.1365
     14 C12        -4.5136   -3.1499    2.8312 C.3       1 <0>        -0.1103
     15 C13        -3.1989   -2.3673    2.8223 C.3       1 <0>        -0.1341
     16 H2         -3.3114   -1.4613    3.4178 H         1 <0>         0.1277
     17 C14        -2.1028   -3.2201    3.4073 C.2       1 <0>         0.5214
     18 O1         -1.1297   -3.4991    2.7394 O.2       1 <0>        -0.5596
     19 N2         -2.2037   -3.6726    4.6728 N.am      1 <0>        -0.8277
     20 N3          1.2259   -2.0756   -0.0227 N.am      1 <0>        -0.6473
     21 C15         2.3977   -2.7427   -0.0380 C.2       1 <0>         0.5130
     22 C16         3.6758   -1.9740   -0.0456 C.2       1 <0>         0.5112
     23 N4          3.6359   -0.6262   -0.0379 N.am      1 <0>        -0.6332
     24 O2          4.7418   -2.5562   -0.0593 O.2       1 <0>        -0.4257
     25 O3          2.4122   -3.9573   -0.0451 O.2       1 <0>        -0.4186
     26 N5          1.1406    3.5691    0.0104 N.pl3     1 <0>         0.0267
     27 O4          0.0817    4.1525    0.0236 O.2       1 <0>        -0.1358
     28 O5          2.1752    4.1945    0.0038 O.3       1 <0>        -0.1308
     29 H3         -0.9602    1.9006    0.0260 H         1 <0>         0.1768
     30 H4          3.3028    1.9869   -0.0196 H         1 <0>         0.1818
     31 H5         -2.1024   -0.1291   -0.3292 H         1 <0>         0.1633
     32 H6         -1.2090   -1.6336   -0.6553 H         1 <0>         0.1444
     33 H7         -0.8276   -1.8372    1.6899 H         1 <0>         0.4290
     34 H8         -2.4252   -2.9942   -0.4771 H         1 <0>         0.0878
     35 H9         -1.8886   -3.8793    0.9710 H         1 <0>         0.1150
     36 H10        -4.7890   -3.4282    0.1336 H         1 <0>         0.0783
     37 H11        -3.8837   -4.9511   -0.0387 H         1 <0>         0.0884
     38 H12        -5.2924   -4.9792    2.0017 H         1 <0>         0.0880
     39 H13        -3.5629   -5.0384    2.4185 H         1 <0>         0.0693
     40 H14        -5.3065   -2.5331    2.4081 H         1 <0>         0.0954
     41 H15        -4.7698   -3.4182    3.8561 H         1 <0>         0.0910
     42 H16        -2.9820   -3.4494    5.2071 H         1 <0>         0.4128
     43 H17        -1.4982   -4.2215    5.0494 H         1 <0>         0.4174
     44 H18         4.4616   -0.1171   -0.0437 H         1 <0>         0.4369
     45 H19         0.3892   -2.5663   -0.0174 H         1 <0>         0.4177
     46 H20        -1.6546   -0.4444    1.9917 H         1 <0>         0.4278
@<TRIPOS>BOND
     1    1    6 ar
     2    1    2 ar
     3    1   29 1
     4    2    3 ar
     5    2   26 1
     6    3    4 ar
     7    3   30 1
     8    4   23 1
     9    4    5 ar
    10    5    6 ar
    11    5   20 1
    12    6    7 1
    13    7    8 1
    14    7   31 1
    15    7   32 1
    16    8    9 1
    17    8   33 1
    18    8   46 1
    19    9   10 1
    20    9   15 1
    21    9   11 1
    22   11   12 1
    23   11   34 1
    24   11   35 1
    25   12   13 1
    26   12   36 1
    27   12   37 1
    28   13   14 1
    29   13   38 1
    30   13   39 1
    31   14   15 1
    32   14   40 1
    33   14   41 1
    34   15   16 1
    35   15   17 1
    36   17   18 2
    37   17   19 am
    38   19   42 1
    39   19   43 1
    40   20   21 am
    41   20   45 1
    42   21   22 1
    43   21   25 2
    44   22   23 am
    45   22   24 2
    46   23   44 1
    47   26   27 2
    48   26   28 1
@<TRIPOS>MOLECULE
CHEMBL12696
   53    56     0     0     0
SMALL
USER_CHARGES

@<TRIPOS>ATOM
      1 C1          1.1830   -0.7050   -0.5965 C.ar      1 <0>        -0.1165
      2 C2          2.3881   -0.0304   -0.5857 C.ar      1 <0>        -0.0691
      3 C3          2.5259    1.1306    0.1542 C.ar      1 <0>        -0.1127
      4 C4          1.4576    1.6187    0.8855 C.ar      1 <0>        -0.0688
      5 C5          0.2504    0.9479    0.8786 C.ar      1 <0>        -0.1458
      6 C6          0.1091   -0.2170    0.1362 C.ar      1 <0>         0.1909
      7 N1         -1.1135   -0.8987    0.1270 N.am      1 <0>        -0.6886
      8 C7         -1.1350   -2.2426    0.0270 C.2       1 <0>         0.7033
      9 O1         -0.0936   -2.8701    0.0420 O.2       1 <0>        -0.5746
     10 N2         -2.3108   -2.8909   -0.0898 N.am      1 <0>        -0.7317
     11 C8         -2.3342   -4.3517   -0.1985 C.3       1 <0>         0.2164
     12 C9         -3.7604   -4.8239   -0.3170 C.2       1 <0>        -0.1874
     13 C10        -4.6178   -5.1624    0.7490 C.2       1 <0>        -0.1710
     14 C11        -5.7998   -5.5328    0.2158 C.2       1 <0>         0.0012
     15 N3         -5.7040   -5.4354   -1.1429 N.pl3     1 <0>        -0.4073
     16 C12        -4.4518   -4.9942   -1.4623 C.2       1 <0>         0.0184
     17 C13        -6.7240   -5.7339   -2.0581 C.ar      1 <0>         0.1835
     18 C14        -7.9416   -5.0776   -1.9752 C.ar      1 <0>        -0.1152
     19 C15        -8.9525   -5.3724   -2.8817 C.ar      1 <0>         0.2046
     20 C16        -8.7366   -6.3312   -3.8741 C.ar      1 <0>         0.1116
     21 C17        -7.5115   -6.9851   -3.9493 C.ar      1 <0>        -0.0569
     22 C18        -6.5099   -6.6837   -3.0506 C.ar      1 <0>        -0.1918
     23 C19        -5.1819   -7.3903   -3.1405 C.3       1 <0>         0.5180
     24 F1         -5.2541   -8.3973   -4.1089 F         1 <0>        -0.1755
     25 F2         -4.1881   -6.4720   -3.4958 F         1 <0>        -0.1715
     26 F3         -4.8706   -7.9577   -1.9001 F         1 <0>        -0.1670
     27 N4         -9.7389   -6.6394   -4.7906 N.am      1 <0>        -0.6313
     28 H1         -9.5799   -7.3071   -5.4760 H         1 <0>         0.4219
     29 C20       -10.9303   -6.0111   -4.7264 C.2       1 <0>         0.5167
     30 O2        -11.8077   -6.2769   -5.5234 O.2       1 <0>        -0.4703
     31 C21       -11.1602   -4.9872   -3.6670 C.2       1 <0>         0.5080
     32 O3        -12.2265   -4.4103   -3.5926 O.2       1 <0>        -0.4544
     33 N5        -10.1729   -4.7088   -2.7919 N.am      1 <0>        -0.4916
     34 C22       -10.3847   -3.7059   -1.7452 C.3       1 <0>         0.0196
     35 C23        -9.9712   -2.3502   -2.2574 C.2       1 <0>         0.4875
     36 O4         -9.5397   -2.2327   -3.3916 O.co2     1 <0>        -0.6765
     37 O5        -10.0683   -1.3710   -1.5376 O.co2     1 <0>        -0.6814
     38 Br1         4.1775    2.0515    0.1665 Br        1 <0>        -0.0575
     39 H2          1.0747   -1.6087   -1.1778 H         1 <0>         0.1460
     40 H3          3.2238   -0.4096   -1.1551 H         1 <0>         0.1346
     41 H4          1.5680    2.5250    1.4625 H         1 <0>         0.1354
     42 H5         -0.5830    1.3289    1.4502 H         1 <0>         0.1352
     43 H6         -1.9452   -0.4039    0.1927 H         1 <0>         0.4110
     44 H7         -3.1416   -2.3904   -0.1018 H         1 <0>         0.4023
     45 H8         -1.7750   -4.6593   -1.0822 H         1 <0>         0.0723
     46 H9         -1.8791   -4.7895    0.6900 H         1 <0>         0.0754
     47 H10        -4.3730   -5.1313    1.8005 H         1 <0>         0.1424
     48 H11        -6.6715   -5.8518    0.7679 H         1 <0>         0.1674
     49 H12        -4.0787   -4.8153   -2.4599 H         1 <0>         0.1759
     50 H13        -8.1049   -4.3374   -1.2060 H         1 <0>         0.1600
     51 H14        -7.3428   -7.7273   -4.7155 H         1 <0>         0.1593
     52 H15       -11.4393   -3.6844   -1.4707 H         1 <0>         0.1029
     53 H16        -9.7867   -3.9617   -0.8705 H         1 <0>         0.0930
@<TRIPOS>BOND
     1    1    6 ar
     2    1    2 ar
     3    1   39 1
     4    2    3 ar
     5    2   40 1
     6    3    4 ar
     7    3   38 1
     8    4    5 ar
     9    4   41 1
    10    5    6 ar
    11    5   42 1
    12    6    7 1
    13    7    8 am
    14    7   43 1
    15    8    9 2
    16    8   10 am
    17   10   11 1
    18   10   44 1
    19   11   12 1
    20   11   45 1
    21   11   46 1
    22   12   16 2
    23   12   13 1
    24   13   14 2
    25   13   47 1
    26   14   15 1
    27   14   48 1
    28   15   16 1
    29   15   17 1
    30   16   49 1
    31   17   22 ar
    32   17   18 ar
    33   18   19 ar
    34   18   50 1
    35   19   33 1
    36   19   20 ar
    37   20   21 ar
    38   20   27 1
    39   21   22 ar
    40   21   51 1
    41   22   23 1
    42   23   24 1
    43   23   25 1
    44   23   26 1
    45   27   28 1
    46   27   29 am
    47   29   30 2
    48   29   31 1
    49   31   32 2
    50   31   33 am
    51   33   34 1
    52   34   35 1
    53   34   52 1
    54   34   53 1
    55   35   36 2
    56   35   37 1
@<TRIPOS>MOLECULE
CHEMBL154355
   42    46     0     0     0
SMALL
USER_CHARGES

@<TRIPOS>ATOM
      1 C1          1.0109    1.3799    2.9644 C.ar      1 <0>        -0.1332
      2 C2          1.5913    0.2254    3.4569 C.ar      1 <0>        -0.0994
      3 C3          2.5331   -0.4503    2.7060 C.ar      1 <0>        -0.1199
      4 C4          2.8966    0.0304    1.4549 C.ar      1 <0>         0.1575
      5 C5          2.3115    1.1898    0.9630 C.ar      1 <0>        -0.1451
      6 C6          1.3707    1.8612    1.7190 C.ar      1 <0>        -0.0995
      7 N1          3.8508   -0.6517    0.6918 N.am      1 <0>        -0.6792
      8 C7          3.9389   -1.9945    0.7665 C.2       1 <0>         0.7047
      9 O1          3.1299   -2.6212    1.4231 O.2       1 <0>        -0.5487
     10 N2          4.9237   -2.6426    0.1133 N.am      1 <0>        -0.6807
     11 C8          4.9524   -4.0407    0.1011 C.ar      1 <0>         0.1893
     12 C9          3.7630   -4.7606    0.1018 C.ar      1 <0>        -0.1151
     13 C10         3.7850   -6.1379    0.0897 C.ar      1 <0>        -0.0597
     14 C11         5.0077   -6.8161    0.0763 C.ar      1 <0>        -0.0815
     15 C12         6.1958   -6.0864    0.0752 C.ar      1 <0>        -0.0503
     16 C13         6.1708   -4.7113    0.0824 C.ar      1 <0>        -0.1220
     17 C14         7.3192   -7.0923    0.0596 C.3       1 <0>        -0.0184
     18 C15         6.6517   -8.4500    0.0520 C.2       1 <0>        -0.0079
     19 C16         5.3219   -8.2644    0.0618 C.2       1 <0>         0.1587
     20 N3          4.4526   -9.3559    0.0578 N.am      1 <0>        -0.6291
     21 C17         4.9303  -10.6158    0.0439 C.2       1 <0>         0.6005
     22 C18         6.3856  -10.8196    0.0332 C.2       1 <0>         0.1329
     23 N4          7.2002   -9.7187    0.0376 N.pl3     1 <0>        -0.3471
     24 C19         8.4810  -10.1716    0.0262 C.2       1 <0>        -0.0284
     25 C20         8.4242  -11.5273    0.0151 C.2       1 <0>        -0.0047
     26 N5          7.1446  -11.8961    0.0192 N.2       1 <0>        -0.4099
     27 O2          4.1706  -11.5674    0.0408 O.2       1 <0>        -0.4840
     28 H1          0.2717    1.9042    3.5518 H         1 <0>         0.1247
     29 H2          1.3081   -0.1479    4.4300 H         1 <0>         0.1268
     30 H3          2.9866   -1.3515    3.0915 H         1 <0>         0.1357
     31 H4          2.5922    1.5662   -0.0096 H         1 <0>         0.1256
     32 H5          0.9155    2.7630    1.3371 H         1 <0>         0.1277
     33 H6          4.4489   -0.1581    0.1091 H         1 <0>         0.4098
     34 H7          5.6125   -2.1393   -0.3483 H         1 <0>         0.4123
     35 H8          2.8180   -4.2378    0.1121 H         1 <0>         0.1469
     36 H9          2.8587   -6.6934    0.0910 H         1 <0>         0.1330
     37 H10         7.0955   -4.1533    0.0773 H         1 <0>         0.1382
     38 H11         7.9255   -6.9658   -0.8374 H         1 <0>         0.1156
     39 H12         7.9366   -6.9812    0.9510 H         1 <0>         0.1154
     40 H13         9.3756   -9.5666    0.0255 H         1 <0>         0.1918
     41 H14         9.2734  -12.1945    0.0038 H         1 <0>         0.1915
     42 H15         3.4943   -9.2061    0.0653 H         1 <0>         0.4253
@<TRIPOS>BOND
     1    1    6 ar
     2    1    2 ar
     3    1   28 1
     4    2    3 ar
     5    2   29 1
     6    3    4 ar
     7    3   30 1
     8    4    5 ar
     9    4    7 1
    10    5    6 ar
    11    5   31 1
    12    6   32 1
    13    7    8 am
    14    7   33 1
    15    8    9 2
    16    8   10 am
    17   10   11 1
    18   10   34 1
    19   11   16 ar
    20   11   12 ar
    21   12   13 ar
    22   12   35 1
    23   13   14 ar
    24   13   36 1
    25   14   19 1
    26   14   15 ar
    27   15   16 ar
    28   15   17 1
    29   16   37 1
    30   17   18 1
    31   17   38 1
    32   17   39 1
    33   18   23 1
    34   18   19 2
    35   19   20 1
    36   20   21 am
    37   20   42 1
    38   21   22 1
    39   21   27 2
    40   22   26 2
    41   22   23 1
    42   23   24 1
    43   24   25 2
    44   24   40 1
    45   25   26 1
    46   25   41 1
@<TRIPOS>MOLECULE
CHEMBL154355
   41    45     0     0     0
SMALL
USER_CHARGES

@<TRIPOS>ATOM
      1 C1          8.5020    1.5239   -3.0438 C.ar      1 <0>        -0.1389
      2 C2          7.9554    0.3583   -3.5486 C.ar      1 <0>        -0.0992
      3 C3          7.0349   -0.3533   -2.8045 C.ar      1 <0>        -0.1203
      4 C4          6.6587    0.1027   -1.5479 C.ar      1 <0>         0.1661
      5 C5          7.2097    1.2734   -1.0436 C.ar      1 <0>        -0.1492
      6 C6          8.1294    1.9806   -1.7929 C.ar      1 <0>        -0.1013
      7 N1          5.7259   -0.6158   -0.7916 N.am      1 <0>        -0.6846
      8 C7          5.6775   -1.9597   -0.8810 C.2       1 <0>         0.7015
      9 O1          6.5040   -2.5549   -1.5451 O.2       1 <0>        -0.5494
     10 N2          4.7130   -2.6438   -0.2344 N.am      1 <0>        -0.6760
     11 C8          4.7257   -4.0424   -0.2376 C.ar      1 <0>         0.1556
     12 C9          3.5286   -4.7488   -0.2323 C.ar      1 <0>        -0.1468
     13 C10         3.5361   -6.1267   -0.2354 C.ar      1 <0>        -0.0589
     14 C11         4.7496   -6.8182   -0.2439 C.ar      1 <0>        -0.0368
     15 C12         5.9451   -6.1036   -0.2492 C.ar      1 <0>        -0.0650
     16 C13         5.9356   -4.7272   -0.2518 C.ar      1 <0>        -0.1008
     17 C14         7.0625   -7.1171   -0.2578 C.3       1 <0>         0.0024
     18 C15         6.3908   -8.4697   -0.2569 C.2       1 <0>        -0.1569
     19 C16         5.0465   -8.2737   -0.2488 C.2       1 <0>         0.1995
     20 N3          4.2055   -9.3309   -0.2459 N.2       1 <0>        -0.6034
     21 C17         4.6527  -10.5647   -0.2508 C.2       1 <0>         0.4918
     22 C18         6.0476  -10.8095   -0.2593 C.2       1 <0>         0.1408
     23 N4          6.9040   -9.7377   -0.2620 N.pl3     1 <0>        -0.3011
     24 C19         8.1702  -10.2368   -0.2695 C.2       1 <0>        -0.1062
     25 C20         8.0665  -11.5874   -0.2707 C.2       1 <0>        -0.0143
     26 N5          6.7736  -11.9141   -0.2654 N.2       1 <0>        -0.4594
     27 O2          3.7812  -11.6028   -0.2472 O.3       1 <0>        -0.6489
     28 H1          9.2246    2.0764   -3.6259 H         1 <0>         0.1219
     29 H2          8.2484    0.0042   -4.5259 H         1 <0>         0.1253
     30 H3          6.6078   -1.2632   -3.1995 H         1 <0>         0.1376
     31 H4          6.9189    1.6307   -0.0668 H         1 <0>         0.1242
     32 H5          8.5581    2.8913   -1.4014 H         1 <0>         0.1248
     33 H6          5.1142   -0.1465   -0.2029 H         1 <0>         0.4076
     34 H7          4.0101   -2.1662    0.2333 H         1 <0>         0.4076
     35 H8          2.5893   -4.2158   -0.2253 H         1 <0>         0.1274
     36 H9          2.6038   -6.6719   -0.2309 H         1 <0>         0.1360
     37 H10         6.8667   -4.1799   -0.2609 H         1 <0>         0.1361
     38 H11         7.6700   -6.9994   -1.1551 H         1 <0>         0.0876
     39 H12         7.6803   -7.0034    0.6330 H         1 <0>         0.0863
     40 H13         9.0856   -9.6638   -0.2740 H         1 <0>         0.1682
     41 H14         8.8925  -12.2831   -0.2760 H         1 <0>         0.1691
@<TRIPOS>BOND
     1    1    6 ar
     2    1    2 ar
     3    1   28 1
     4    2    3 ar
     5    2   29 1
     6    3    4 ar
     7    3   30 1
     8    4    5 ar
     9    4    7 1
    10    5    6 ar
    11    5   31 1
    12    6   32 1
    13    7    8 am
    14    7   33 1
    15    8    9 2
    16    8   10 am
    17   10   11 1
    18   10   34 1
    19   11   16 ar
    20   11   12 ar
    21   12   13 ar
    22   12   35 1
    23   13   14 ar
    24   13   36 1
    25   14   19 1
    26   14   15 ar
    27   15   16 ar
    28   15   17 1
    29   16   37 1
    30   17   18 1
    31   17   38 1
    32   17   39 1
    33   18   23 1
    34   18   19 2
    35   19   20 1
    36   20   21 2
    37   21   22 1
    38   21   27 1
    39   22   26 2
    40   22   23 1
    41   23   24 1
    42   24   25 2
    43   24   40 1
    44   25   26 1
    45   25   41 1
@<TRIPOS>MOLECULE
CHEMBL98166
   39    43     0     0     0
SMALL
USER_CHARGES

@<TRIPOS>ATOM
      1 C1         -0.0166    1.3748    0.0096 C.ar      1 <0>        -0.1003
      2 C2          1.1681    2.0897    0.0021 C.ar      1 <0>        -0.0851
      3 C3          2.3820    1.4242   -0.0119 C.ar      1 <0>        -0.0875
      4 C4          2.4111    0.0475   -0.0194 C.ar      1 <0>        -0.0757
      5 C5          1.2232   -0.6829   -0.0129 C.ar      1 <0>        -0.0707
      6 C6          0.0021   -0.0041    0.0020 C.ar      1 <0>        -0.0730
      7 C7          1.5377   -2.1317   -0.0249 C.2       1 <0>         0.2038
      8 C8          2.8679   -2.3169   -0.0388 C.2       1 <0>        -0.0486
      9 N1          3.4164   -3.5854   -0.0534 N.pl3     1 <0>        -0.3416
     10 C9          4.6975   -4.0380   -0.0699 C.2       1 <0>        -0.1259
     11 C10         4.6405   -5.3936   -0.0791 C.2       1 <0>         0.0400
     12 N2          3.3610   -5.7627   -0.0689 N.2       1 <0>        -0.4022
     13 C11         2.6018   -4.6865   -0.0526 C.2       1 <0>         0.1712
     14 C12         1.1462   -4.4833   -0.0368 C.2       1 <0>         0.5947
     15 N3          0.6686   -3.2233   -0.0228 N.am      1 <0>        -0.6269
     16 O1          0.3867   -5.4350   -0.0358 O.2       1 <0>        -0.4561
     17 C13         3.5296   -0.9591   -0.0338 C.3       1 <0>         0.0506
     18 C14         4.3848   -0.7892   -1.2888 C.3       1 <0>        -0.1259
     19 C15         5.5377   -1.7961   -1.2541 C.3       1 <0>        -0.0631
     20 N4          6.3535   -1.5679   -0.0554 N.4       1 <0>        -0.5045
     21 C16         5.5525   -1.8127    1.1500 C.3       1 <0>        -0.0611
     22 C17         4.4006   -0.8063    1.2126 C.3       1 <0>        -0.1260
     23 H1         -0.9606    1.8993    0.0259 H         1 <0>         0.1427
     24 H2          1.1457    3.1695    0.0069 H         1 <0>         0.1425
     25 H3          3.3054    1.9843   -0.0173 H         1 <0>         0.1350
     26 H4         -0.9251   -0.5580    0.0080 H         1 <0>         0.1354
     27 H5          5.5921   -3.4330   -0.0753 H         1 <0>         0.1905
     28 H6          5.4897   -6.0608   -0.0928 H         1 <0>         0.1998
     29 H7          3.7728   -0.9669   -2.1731 H         1 <0>         0.1203
     30 H8          4.7868    0.2235   -1.3210 H         1 <0>         0.1070
     31 H9          5.1348   -2.8087   -1.2317 H         1 <0>         0.1587
     32 H10         6.1558   -1.6711   -2.1431 H         1 <0>         0.1482
     33 H11         7.1448   -2.1939   -0.0646 H         1 <0>         0.4343
     34 H12         5.1491   -2.8248    1.1186 H         1 <0>         0.1573
     35 H13         6.1816   -1.7000    2.0330 H         1 <0>         0.1482
     36 H14         4.8033    0.2058    1.2534 H         1 <0>         0.1071
     37 H15         3.7997   -0.9957    2.1021 H         1 <0>         0.1204
     38 H16         6.6828   -0.6142   -0.0508 H         1 <0>         0.4337
     39 H17        -0.2897   -3.0735   -0.0121 H         1 <0>         0.4326
@<TRIPOS>BOND
     1    1    6 ar
     2    1    2 ar
     3    1   23 1
     4    2    3 ar
     5    2   24 1
     6    3    4 ar
     7    3   25 1
     8    4   17 1
     9    4    5 ar
    10    5    6 ar
    11    5    7 1
    12    6   26 1
    13    7   15 1
    14    7    8 2
    15    8    9 1
    16    8   17 1
    17    9   13 1
    18    9   10 1
    19   10   11 2
    20   10   27 1
    21   11   12 1
    22   11   28 1
    23   12   13 2
    24   13   14 1
    25   14   15 am
    26   14   16 2
    27   15   39 1
    28   17   22 1
    29   17   18 1
    30   18   19 1
    31   18   29 1
    32   18   30 1
    33   19   20 1
    34   19   31 1
    35   19   32 1
    36   20   21 1
    37   20   33 1
    38   20   38 1
    39   21   22 1
    40   21   34 1
    41   21   35 1
    42   22   36 1
    43   22   37 1
@<TRIPOS>MOLECULE
CHEMBL98166
   38    42     0     0     0
SMALL
USER_CHARGES

@<TRIPOS>ATOM
      1 C1         -0.0166    1.3752    0.0096 C.ar      1 <0>        -0.1123
      2 C2          1.1687    2.0887    0.0021 C.ar      1 <0>        -0.1102
      3 C3          2.3810    1.4214   -0.0128 C.ar      1 <0>        -0.0990
      4 C4          2.4091    0.0438   -0.0204 C.ar      1 <0>        -0.0893
      5 C5          1.2212   -0.6836   -0.0135 C.ar      1 <0>        -0.0281
      6 C6          0.0021   -0.0041    0.0020 C.ar      1 <0>        -0.0721
      7 C7          1.5330   -2.1362   -0.0257 C.2       1 <0>         0.2358
      8 C8          2.8797   -2.3180   -0.0409 C.2       1 <0>        -0.1987
      9 N1          3.4053   -3.5805   -0.0564 N.pl3     1 <0>        -0.2898
     10 C9          4.6765   -4.0670   -0.0749 C.2       1 <0>        -0.1943
     11 C10         4.5863   -5.4184   -0.0845 C.2       1 <0>         0.0223
     12 N2          3.2968   -5.7580   -0.0722 N.2       1 <0>        -0.4459
     13 C11         2.5598   -4.6611   -0.0549 C.2       1 <0>         0.1636
     14 C12         1.1625   -4.4308   -0.0372 C.2       1 <0>         0.4927
     15 N3          0.7030   -3.2018   -0.0232 N.2       1 <0>        -0.5901
     16 O1          0.3016   -5.4778   -0.0341 O.3       1 <0>        -0.6128
     17 C13         3.5325   -0.9586   -0.0361 C.3       1 <0>         0.0709
     18 C14         4.3858   -0.7812   -1.2918 C.3       1 <0>        -0.1221
     19 C15         5.5449   -1.7809   -1.2582 C.3       1 <0>        -0.0602
     20 N4          6.3606   -1.5490   -0.0603 N.4       1 <0>        -0.4990
     21 C16         5.5618   -1.7983    1.1455 C.3       1 <0>        -0.0581
     22 C17         4.4037   -0.7991    1.2098 C.3       1 <0>        -0.1223
     23 H1         -0.9603    1.9001    0.0260 H         1 <0>         0.1311
     24 H2          1.1478    3.1685    0.0076 H         1 <0>         0.1294
     25 H3          3.3051    1.9804   -0.0189 H         1 <0>         0.1217
     26 H4         -0.9254   -0.5574    0.0080 H         1 <0>         0.1356
     27 H5          5.5861   -3.4848   -0.0811 H         1 <0>         0.1695
     28 H6          5.4192   -6.1057   -0.0997 H         1 <0>         0.1759
     29 H7          3.7746   -0.9619   -2.1760 H         1 <0>         0.1128
     30 H8          4.7814    0.2340   -1.3228 H         1 <0>         0.0896
     31 H9          5.1481   -2.7959   -1.2363 H         1 <0>         0.1659
     32 H10         6.1614   -1.6518   -2.1478 H         1 <0>         0.1346
     33 H11         7.1550   -2.1710   -0.0704 H         1 <0>         0.4271
     34 H12         5.1645   -2.8129    1.1144 H         1 <0>         0.1644
     35 H13         6.1908   -1.6822    2.0281 H         1 <0>         0.1346
     36 H14         4.8000    0.2155    1.2497 H         1 <0>         0.0897
     37 H15         3.8050   -0.9923    2.1000 H         1 <0>         0.1128
     38 H16         6.6850   -0.5936   -0.0556 H         1 <0>         0.4245
@<TRIPOS>BOND
     1    1    6 ar
     2    1    2 ar
     3    1   23 1
     4    2    3 ar
     5    2   24 1
     6    3    4 ar
     7    3   25 1
     8    4   17 1
     9    4    5 ar
    10    5    6 ar
    11    5    7 1
    12    6   26 1
    13    7   15 1
    14    7    8 2
    15    8    9 1
    16    8   17 1
    17    9   13 1
    18    9   10 1
    19   10   11 2
    20   10   27 1
    21   11   12 1
    22   11   28 1
    23   12   13 2
    24   13   14 1
    25   14   15 2
    26   14   16 1
    27   17   22 1
    28   17   18 1
    29   18   19 1
    30   18   29 1
    31   18   30 1
    32   19   20 1
    33   19   31 1
    34   19   32 1
    35   20   21 1
    36   20   33 1
    37   20   38 1
    38   21   22 1
    39   21   34 1
    40   21   35 1
    41   22   36 1
    42   22   37 1
@<TRIPOS>MOLECULE
CHEMBL402444
   18    18     0     0     0
SMALL
USER_CHARGES

@<TRIPOS>ATOM
      1 C1         -0.0187    1.5258    0.0104 C.3       1 <0>        -0.0609
      2 C2         -0.7475    2.0250   -1.2105 C.2       1 <0>         0.0522
      3 C3         -2.1098    2.2485   -1.2019 C.2       1 <0>         0.2587
      4 N1         -2.6134    2.6841   -2.3383 N.2       1 <0>        -0.4701
      5 S1         -1.2793    2.7738   -3.3429 S.3       1 <0>         0.4462
      6 N2         -0.1200    2.2746   -2.3338 N.2       1 <0>        -0.4497
      7 O1         -2.8767    2.0339   -0.0997 O.3       1 <0>        -0.4397
      8 C4          0.0021   -0.0041    0.0020 C.3       1 <0>         0.0338
      9 H1         -1.0175   -0.3808   -0.0798 H         1 <0>         0.0762
     10 C5          0.6216   -0.5051    1.2812 C.2       1 <0>         0.5049
     11 O2          0.0243   -0.3817    2.3369 O.co2     1 <0>        -0.6980
     12 O3          1.7200   -1.0338    1.2603 O.co2     1 <0>        -0.6784
     13 N3          0.7922   -0.4768   -1.1426 N.3       1 <0>        -0.8174
     14 H2          1.0039    1.9031    0.0027 H         1 <0>         0.0829
     15 H3         -0.5289    1.8773    0.9072 H         1 <0>         0.0978
     16 H4          0.3616   -0.2084   -2.0148 H         1 <0>         0.3131
     17 H5          1.7421   -0.1406   -1.0899 H         1 <0>         0.3431
     18 H6         -2.9601    2.8052    0.4776 H         1 <0>         0.4051
@<TRIPOS>BOND
     1    1    8 1
     2    1   14 1
     3    1   15 1
     4    1    2 1
     5    2    3 1
     6    2    6 2
     7    3    4 2
     8    3    7 1
     9    4    5 1
    10    5    6 1
    11    7   18 1
    12    8    9 1
    13    8   10 1
    14    8   13 1
    15   10   11 2
    16   10   12 1
    17   13   16 1
    18   13   17 1
@<TRIPOS>MOLECULE
CHEMBL402444
   18    18     0     0     0
SMALL
USER_CHARGES

@<TRIPOS>ATOM
      1 C1         -0.0187    1.5258    0.0104 C.3       1 <0>        -0.0117
      2 C2         -0.7475    2.0250   -1.2105 C.2       1 <0>         0.0478
      3 C3         -0.9146    3.3821   -1.4550 C.2       1 <0>         0.4841
      4 N1         -1.5905    3.6603   -2.5923 N.am      1 <0>        -0.7423
      5 S1         -1.9313    2.1452   -3.2129 S.3       1 <0>         0.4050
      6 N2         -1.2485    1.2024   -2.0936 N.2       1 <0>        -0.3378
      7 O1         -0.4882    4.2489   -0.7070 O.2       1 <0>        -0.5024
      8 C4          0.0021   -0.0041    0.0020 C.3       1 <0>         0.0279
      9 H1         -1.0175   -0.3808   -0.0798 H         1 <0>         0.0787
     10 C5          0.6216   -0.5051    1.2812 C.2       1 <0>         0.4651
     11 O2          0.0243   -0.3817    2.3369 O.co2     1 <0>        -0.6973
     12 O3          1.7200   -1.0338    1.2603 O.co2     1 <0>        -0.6970
     13 N3          0.7922   -0.4768   -1.1426 N.3       1 <0>        -0.8204
     14 H2          1.0039    1.9031    0.0027 H         1 <0>         0.0879
     15 H3         -0.5289    1.8773    0.9072 H         1 <0>         0.0998
     16 H4          1.7421   -0.1406   -1.0899 H         1 <0>         0.3312
     17 H5          0.7679   -1.4834   -1.2077 H         1 <0>         0.3331
     18 H6         -1.8221    4.5279   -2.9590 H         1 <0>         0.4484
@<TRIPOS>BOND
     1    1    8 1
     2    1   14 1
     3    1   15 1
     4    1    2 1
     5    2    3 1
     6    2    6 2
     7    3    4 am
     8    3    7 2
     9    4    5 1
    10    4   18 1
    11    5    6 1
    12    8    9 1
    13    8   10 1
    14    8   13 1
    15   10   11 2
    16   10   12 1
    17   13   16 1
    18   13   17 1
@<TRIPOS>MOLECULE
CHEMBL414411
   44    47     0     0     0
SMALL
USER_CHARGES

@<TRIPOS>ATOM
      1 C1         -0.3933    1.2298   -0.8396 C.2       1 <0>        -0.1810
      2 C2          0.1445    1.5057    0.4335 C.2       1 <0>        -0.1737
      3 C3          0.8416    0.4187    0.8226 C.2       1 <0>        -0.0148
      4 N1          0.7541   -0.5202   -0.1650 N.pl3     1 <0>        -0.4215
      5 C4         -0.0051   -0.0156   -1.1818 C.2       1 <0>         0.0258
      6 C5          1.3463   -1.7913   -0.1397 C.ar      1 <0>         0.2157
      7 C6          1.0370   -2.6783    0.8789 C.ar      1 <0>        -0.1314
      8 C7          1.6228   -3.9379    0.9045 C.ar      1 <0>         0.1956
      9 C8          2.5231   -4.3049   -0.0983 C.ar      1 <0>         0.1205
     10 C9          2.8278   -3.4079   -1.1164 C.ar      1 <0>        -0.0391
     11 C10         2.2384   -2.1614   -1.1398 C.ar      1 <0>        -0.0495
     12 N2          2.5611   -1.2126   -2.2292 N.pl3     1 <0>         0.0313
     13 O1          3.2334   -1.5744   -3.1666 O.2       1 <0>        -0.1568
     14 O2          2.1522   -0.0758   -2.1817 O.3       1 <0>        -0.1211
     15 N3          3.1199   -5.5632   -0.0879 N.am      1 <0>        -0.6316
     16 H1          3.7441   -5.8090   -0.7885 H         1 <0>         0.4301
     17 C11         2.8316   -6.4403    0.8949 C.2       1 <0>         0.5106
     18 O3          3.3503   -7.5386    0.9086 O.2       1 <0>        -0.4483
     19 C12         1.8700   -6.0482    1.9651 C.2       1 <0>         0.5093
     20 O4          1.5975   -6.8239    2.8592 O.2       1 <0>        -0.4354
     21 N4          1.3069   -4.8234    1.9311 N.am      1 <0>        -0.5233
     22 C13         0.3612   -4.4241    2.9762 C.3       1 <0>         0.1285
     23 C14        -0.8339   -5.3794    2.9747 C.3       1 <0>        -0.1384
     24 C15        -1.8216   -4.9623    4.0662 C.3       1 <0>        -0.1135
     25 C16        -1.1281   -5.0153    5.4290 C.3       1 <0>        -0.1255
     26 C17         0.0670   -4.0600    5.4305 C.3       1 <0>        -0.1134
     27 C18         1.0547   -4.4771    4.3390 C.3       1 <0>        -0.1384
     28 H2         -1.0077    1.8925   -1.4310 H         1 <0>         0.1438
     29 H3          0.0209    2.4201    0.9947 H         1 <0>         0.1435
     30 H4          1.3769    0.3099    1.7543 H         1 <0>         0.1637
     31 H5         -0.2523   -0.5259   -2.1009 H         1 <0>         0.1557
     32 H6          0.3409   -2.3905    1.6528 H         1 <0>         0.1709
     33 H7          3.5240   -3.6896   -1.8925 H         1 <0>         0.1769
     34 H8          0.0149   -3.4086    2.7841 H         1 <0>         0.1071
     35 H9         -1.3280   -5.3416    2.0039 H         1 <0>         0.0683
     36 H10        -0.4876   -6.3949    3.1669 H         1 <0>         0.0886
     37 H11        -2.1680   -3.9468    3.8741 H         1 <0>         0.0657
     38 H12        -2.6730   -5.6429    4.0651 H         1 <0>         0.0727
     39 H13        -1.8317   -4.7182    6.2066 H         1 <0>         0.0689
     40 H14        -0.7817   -6.0308    5.6211 H         1 <0>         0.0675
     41 H15        -0.2793   -3.0445    5.2384 H         1 <0>         0.0658
     42 H16         0.5611   -4.0978    6.4013 H         1 <0>         0.0728
     43 H17         1.4011   -5.4926    4.5311 H         1 <0>         0.0888
     44 H18         1.9062   -3.7965    4.3401 H         1 <0>         0.0684
@<TRIPOS>BOND
     1    1    5 2
     2    1    2 1
     3    1   28 1
     4    2    3 2
     5    2   29 1
     6    3    4 1
     7    3   30 1
     8    4    5 1
     9    4    6 1
    10    5   31 1
    11    6   11 ar
    12    6    7 ar
    13    7    8 ar
    14    7   32 1
    15    8   21 1
    16    8    9 ar
    17    9   10 ar
    18    9   15 1
    19   10   11 ar
    20   10   33 1
    21   11   12 1
    22   12   13 2
    23   12   14 1
    24   15   16 1
    25   15   17 am
    26   17   18 2
    27   17   19 1
    28   19   20 2
    29   19   21 am
    30   21   22 1
    31   22   27 1
    32   22   23 1
    33   22   34 1
    34   23   24 1
    35   23   35 1
    36   23   36 1
    37   24   25 1
    38   24   37 1
    39   24   38 1
    40   25   26 1
    41   25   39 1
    42   25   40 1
    43   26   27 1
    44   26   41 1
    45   26   42 1
    46   27   43 1
    47   27   44 1
@<TRIPOS>MOLECULE
CHEMBL326506
   31    33     0     0     0
SMALL
USER_CHARGES

@<TRIPOS>ATOM
      1 C1         -0.0171    1.4106    0.0098 C.2       1 <0>        -0.2710
      2 C2          1.1521    2.0871    0.0023 C.2       1 <0>         0.1489
      3 N1          2.3367    1.4230   -0.0126 N.pl3     1 <0>        -0.4316
      4 C3          2.3874    0.0659   -0.0208 C.2       1 <0>         0.1488
      5 C4          1.2523   -0.6662   -0.0139 C.2       1 <0>        -0.2709
      6 C5          0.0021   -0.0041    0.0020 C.2       1 <0>         0.3964
      7 O1         -1.0410   -0.6417    0.0090 O.2       1 <0>        -0.5298
      8 C6          3.5314    2.1534   -0.0201 C.ar      1 <0>         0.1165
      9 C7          4.1301    2.4993    1.1724 C.ar      1 <0>        -0.0221
     10 C8          5.3307    3.2332    1.1645 C.ar      1 <0>         0.1034
     11 C9          5.9066    3.6059   -0.0709 C.ar      1 <0>         0.1485
     12 C10         5.2827    3.2445   -1.2616 C.ar      1 <0>        -0.0763
     13 C11         4.1120    2.5218   -1.2361 C.ar      1 <0>        -0.0114
     14 N2          3.4591    2.1370   -2.5075 N.pl3     1 <0>         0.0329
     15 O2          3.9572    2.4533   -3.5628 O.2       1 <0>        -0.1531
     16 O3          2.4277    1.5064   -2.4908 O.3       1 <0>        -0.1372
     17 N3          7.0829    4.3247   -0.0960 N.am      1 <0>        -0.6267
     18 C12         7.6702    4.6634    1.0724 C.2       1 <0>         0.4895
     19 C13         7.0368    4.2552    2.3371 C.2       1 <0>         0.1490
     20 N4          5.9152    3.5705    2.3201 N.2       1 <0>        -0.4057
     21 C14         7.6619    4.6145    3.6244 C.2       1 <0>         0.5328
     22 O4          7.1360    4.2755    4.6753 O.co2     1 <0>        -0.6356
     23 O5          8.7059    5.2513    3.6406 O.co2     1 <0>        -0.6316
     24 O6          8.7092    5.2974    1.0795 O.2       1 <0>        -0.4428
     25 H1         -0.9562    1.9438    0.0261 H         1 <0>         0.1495
     26 H2          1.1448    3.1670    0.0078 H         1 <0>         0.1582
     27 H3          3.3452   -0.4330   -0.0334 H         1 <0>         0.1582
     28 H4          1.2985   -1.7452   -0.0205 H         1 <0>         0.1495
     29 H5          3.6790    2.2083    2.1096 H         1 <0>         0.1750
     30 H6          5.7204    3.5283   -2.2073 H         1 <0>         0.1703
     31 H7          7.4834    4.5832   -0.9408 H         1 <0>         0.4186
@<TRIPOS>BOND
     1    1    6 1
     2    1    2 2
     3    1   25 1
     4    2    3 1
     5    2   26 1
     6    3    4 1
     7    3    8 1
     8    4    5 2
     9    4   27 1
    10    5    6 1
    11    5   28 1
    12    6    7 2
    13    8   13 ar
    14    8    9 ar
    15    9   10 ar
    16    9   29 1
    17   10   20 1
    18   10   11 ar
    19   11   12 ar
    20   11   17 1
    21   12   13 ar
    22   12   30 1
    23   13   14 1
    24   14   15 2
    25   14   16 1
    26   17   18 am
    27   17   31 1
    28   18   19 1
    29   18   24 2
    30   19   20 2
    31   19   21 1
    32   21   22 2
    33   21   23 1
@<TRIPOS>MOLECULE
CHEMBL326506
   30    32     0     0     0
SMALL
USER_CHARGES

@<TRIPOS>ATOM
      1 C1         -0.0171    1.4108    0.0098 C.2       1 <0>        -0.2940
      2 C2          1.1520    2.0872    0.0023 C.2       1 <0>         0.1642
      3 N1          2.3368    1.4230   -0.0131 N.pl3     1 <0>        -0.4026
      4 C3          2.3875    0.0656   -0.0213 C.2       1 <0>         0.1641
      5 C4          1.2524   -0.6664   -0.0144 C.2       1 <0>        -0.2940
      6 C5          0.0021   -0.0041    0.0020 C.2       1 <0>         0.3994
      7 O1         -1.0410   -0.6416    0.0086 O.2       1 <0>        -0.5565
      8 C6          3.5305    2.1527   -0.0210 C.ar      1 <0>         0.0132
      9 C7          4.1206    2.4930    1.1748 C.ar      1 <0>         0.0043
     10 C8          5.3205    3.2265    1.1671 C.ar      1 <0>        -0.0098
     11 C9          5.9093    3.6081   -0.1197 C.ar      1 <0>         0.1706
     12 C10         5.2585    3.2305   -1.3062 C.ar      1 <0>        -0.0492
     13 C11         4.1033    2.5168   -1.2447 C.ar      1 <0>        -0.0139
     14 N2          3.4315    2.1206   -2.5028 N.pl3     1 <0>         0.0415
     15 O2          3.9137    2.4274   -3.5681 O.2       1 <0>        -0.1766
     16 O3          2.4006    1.4901   -2.4649 O.3       1 <0>        -0.1686
     17 N3          7.0499    4.3050   -0.1368 N.ar      1 <0>        -0.5709
     18 C12         7.6261    4.6373    1.0015 C.ar      1 <0>         0.4060
     19 C13         7.0587    4.2696    2.2400 C.ar      1 <0>         0.0558
     20 N4          5.9317    3.5803    2.2964 N.ar      1 <0>        -0.3956
     21 C14         7.7352    4.6606    3.4944 C.2       1 <0>         0.5362
     22 O4          8.7780    5.2976    3.4536 O.co2     1 <0>        -0.6439
     23 O5          7.2522    4.3471    4.5729 O.co2     1 <0>        -0.6839
     24 O6          8.7817    5.3428    0.9818 O.3       1 <0>        -0.5887
     25 H1         -0.9562    1.9439    0.0261 H         1 <0>         0.1414
     26 H2          1.1446    3.1671    0.0081 H         1 <0>         0.1540
     27 H3          3.3452   -0.4334   -0.0338 H         1 <0>         0.1540
     28 H4          1.2985   -1.7454   -0.0217 H         1 <0>         0.1414
     29 H5          3.6665    2.2001    2.1099 H         1 <0>         0.1464
     30 H6          5.6769    3.5029   -2.2639 H         1 <0>         0.1558
@<TRIPOS>BOND
     1    1    6 1
     2    1    2 2
     3    1   25 1
     4    2    3 1
     5    2   26 1
     6    3    4 1
     7    3    8 1
     8    4    5 2
     9    4   27 1
    10    5    6 1
    11    5   28 1
    12    6    7 2
    13    8   13 ar
    14    8    9 ar
    15    9   10 ar
    16    9   29 1
    17   10   20 ar
    18   10   11 ar
    19   11   12 ar
    20   11   17 ar
    21   12   13 ar
    22   12   30 1
    23   13   14 1
    24   14   15 2
    25   14   16 1
    26   17   18 ar
    27   18   19 ar
    28   18   24 1
    29   19   20 ar
    30   19   21 1
    31   21   22 2
    32   21   23 1
@<TRIPOS>MOLECULE
CHEMBL326506
   31    33     0     0     0
SMALL
USER_CHARGES

@<TRIPOS>ATOM
      1 C1         -0.0171    1.4108    0.0098 C.2       1 <0>        -0.2710
      2 C2          1.1520    2.0872    0.0023 C.2       1 <0>         0.1495
      3 N1          2.3368    1.4230   -0.0131 N.pl3     1 <0>        -0.4327
      4 C3          2.3875    0.0656   -0.0213 C.2       1 <0>         0.1493
      5 C4          1.2524   -0.6664   -0.0144 C.2       1 <0>        -0.2709
      6 C5          0.0021   -0.0041    0.0020 C.2       1 <0>         0.3969
      7 O1         -1.0410   -0.6416    0.0086 O.2       1 <0>        -0.5303
      8 C6          3.5305    2.1527   -0.0210 C.ar      1 <0>         0.1242
      9 C7          4.1206    2.4930    1.1748 C.ar      1 <0>        -0.0237
     10 C8          5.3205    3.2265    1.1671 C.ar      1 <0>         0.0902
     11 C9          5.9093    3.6081   -0.1197 C.ar      1 <0>         0.0956
     12 C10         5.2585    3.2305   -1.3062 C.ar      1 <0>         0.0152
     13 C11         4.1033    2.5168   -1.2447 C.ar      1 <0>        -0.0338
     14 N2          3.4315    2.1206   -2.5028 N.pl3     1 <0>         0.0325
     15 O2          3.9137    2.4274   -3.5681 O.2       1 <0>        -0.1515
     16 O3          2.4006    1.4901   -2.4649 O.3       1 <0>        -0.1389
     17 N3          7.0499    4.3050   -0.1368 N.ar      1 <0>        -0.4535
     18 C12         7.6261    4.6373    1.0015 C.ar      1 <0>         0.3488
     19 C13         7.0587    4.2696    2.2400 C.ar      1 <0>         0.0875
     20 N4          5.9317    3.5803    2.2964 N.ar      1 <0>        -0.3690
     21 C14         7.7352    4.6606    3.4944 C.2       1 <0>         0.5309
     22 O4          8.7780    5.2976    3.4536 O.co2     1 <0>        -0.6425
     23 O5          7.2522    4.3471    4.5729 O.co2     1 <0>        -0.6387
     24 O6          8.7817    5.3428    0.9818 O.3       1 <0>        -0.4391
     25 H1         -0.9562    1.9439    0.0261 H         1 <0>         0.1494
     26 H2          1.1446    3.1671    0.0081 H         1 <0>         0.1578
     27 H3          3.3452   -0.4334   -0.0338 H         1 <0>         0.1578
     28 H4          1.2985   -1.7454   -0.0217 H         1 <0>         0.1494
     29 H5          3.6665    2.2001    2.1099 H         1 <0>         0.1723
     30 H6          5.6769    3.5029   -2.2639 H         1 <0>         0.1771
     31 H7          8.6573    6.3018    0.9888 H         1 <0>         0.4113
@<TRIPOS>BOND
     1    1    6 1
     2    1    2 2
     3    1   25 1
     4    2    3 1
     5    2   26 1
     6    3    4 1
     7    3    8 1
     8    4    5 2
     9    4   27 1
    10    5    6 1
    11    5   28 1
    12    6    7 2
    13    8   13 ar
    14    8    9 ar
    15    9   10 ar
    16    9   29 1
    17   10   20 ar
    18   10   11 ar
    19   11   12 ar
    20   11   17 ar
    21   12   13 ar
    22   12   30 1
    23   13   14 1
    24   14   15 2
    25   14   16 1
    26   17   18 ar
    27   18   19 ar
    28   18   24 1
    29   19   20 ar
    30   19   21 1
    31   21   22 2
    32   21   23 1
    33   24   31 1
@<TRIPOS>MOLECULE
CHEMBL142391
   36    39     0     0     0
SMALL
USER_CHARGES

@<TRIPOS>ATOM
      1 C1          3.5624    3.2058    2.6955 C.ar      1 <0>        -0.1282
      2 C2          3.0502    3.0524    1.4197 C.ar      1 <0>        -0.1211
      3 C3          3.3199    1.9072    0.6982 C.ar      1 <0>        -0.0964
      4 C4          4.1102    0.9046    1.2571 C.ar      1 <0>         0.0092
      5 C5          4.6239    1.0647    2.5427 C.ar      1 <0>        -0.1150
      6 C6          4.3474    2.2139    3.2552 C.ar      1 <0>        -0.1195
      7 C7          4.4031   -0.3289    0.4866 C.2       1 <0>         0.0350
      8 C8          5.1507   -1.3798    0.9135 C.2       1 <0>        -0.0250
      9 N1          5.1621   -2.2944   -0.1054 N.pl3     1 <0>        -0.4083
     10 C9          4.4228   -1.7757   -1.1216 C.2       1 <0>         0.2422
     11 N2          3.9695   -0.6083   -0.7596 N.2       1 <0>        -0.4768
     12 C10         5.8146   -3.5331   -0.1018 C.ar      1 <0>         0.1148
     13 C11         5.5107   -4.4690    0.8727 C.ar      1 <0>        -0.1049
     14 C12         6.1586   -5.6980    0.8757 C.ar      1 <0>         0.0973
     15 C13         7.1194   -5.9831   -0.1122 C.ar      1 <0>         0.1884
     16 C14         7.4113   -5.0199   -1.0898 C.ar      1 <0>        -0.0500
     17 C15         6.7628   -3.8205   -1.0826 C.ar      1 <0>        -0.0309
     18 N3          7.0728   -2.8125   -2.1214 N.pl3     1 <0>         0.0378
     19 O1          7.8025   -3.0980   -3.0420 O.2       1 <0>        -0.1582
     20 O2          6.5961   -1.7038   -2.0491 O.3       1 <0>        -0.1607
     21 N4          7.7581   -7.1705   -0.1257 N.2       1 <0>        -0.5990
     22 C16         7.5032   -8.0832    0.7740 C.2       1 <0>         0.4246
     23 C17         6.5053   -7.8257    1.8257 C.2       1 <0>         0.4779
     24 N5          5.8610   -6.6385    1.8447 N.am      1 <0>        -0.6288
     25 O3          6.2632   -8.6723    2.6666 O.2       1 <0>        -0.5048
     26 O4          8.1581   -9.2691    0.7389 O.3       1 <0>        -0.6016
     27 H1          3.3523    4.1054    3.2549 H         1 <0>         0.1182
     28 H2          2.4379    3.8300    0.9876 H         1 <0>         0.1209
     29 H3          2.9189    1.7881   -0.2975 H         1 <0>         0.1307
     30 H4          5.2366    0.2907    2.9807 H         1 <0>         0.1207
     31 H5          4.7450    2.3390    4.2515 H         1 <0>         0.1209
     32 H6          5.6413   -1.4752    1.8709 H         1 <0>         0.1744
     33 H7          4.2373   -2.2546   -2.0716 H         1 <0>         0.1975
     34 H8          4.7726   -4.2440    1.6283 H         1 <0>         0.1456
     35 H9          8.1473   -5.2305   -1.8515 H         1 <0>         0.1665
     36 H10         5.2000   -6.4482    2.5286 H         1 <0>         0.4064
@<TRIPOS>BOND
     1    1    6 ar
     2    1    2 ar
     3    1   27 1
     4    2    3 ar
     5    2   28 1
     6    3    4 ar
     7    3   29 1
     8    4    5 ar
     9    4    7 1
    10    5    6 ar
    11    5   30 1
    12    6   31 1
    13    7   11 1
    14    7    8 2
    15    8    9 1
    16    8   32 1
    17    9   10 1
    18    9   12 1
    19   10   11 2
    20   10   33 1
    21   12   17 ar
    22   12   13 ar
    23   13   14 ar
    24   13   34 1
    25   14   24 1
    26   14   15 ar
    27   15   16 ar
    28   15   21 1
    29   16   17 ar
    30   16   35 1
    31   17   18 1
    32   18   19 2
    33   18   20 1
    34   21   22 2
    35   22   23 1
    36   22   26 1
    37   23   24 am
    38   23   25 2
    39   24   36 1
@<TRIPOS>MOLECULE
CHEMBL142391
   36    39     0     0     0
SMALL
USER_CHARGES

@<TRIPOS>ATOM
      1 C1          1.5422    2.1265   -2.9335 C.ar      1 <0>        -0.1295
      2 C2          1.9551    2.4672   -1.6580 C.ar      1 <0>        -0.1215
      3 C3          2.7442    1.5996   -0.9305 C.ar      1 <0>        -0.0985
      4 C4          3.1250    0.3782   -1.4833 C.ar      1 <0>         0.0136
      5 C5          2.7061    0.0402   -2.7688 C.ar      1 <0>        -0.1130
      6 C6          1.9172    0.9156   -3.4872 C.ar      1 <0>        -0.1186
      7 C7          3.9735   -0.5584   -0.7064 C.2       1 <0>         0.0266
      8 C8          4.4180   -1.7715   -1.1269 C.2       1 <0>         0.0246
      9 N1          5.1624   -2.2941   -0.1040 N.pl3     1 <0>        -0.4157
     10 C9          5.1506   -1.3873    0.9081 C.2       1 <0>         0.2042
     11 N2          4.4454   -0.3543    0.5404 N.2       1 <0>        -0.4719
     12 C10         5.8158   -3.5354   -0.1008 C.ar      1 <0>         0.1844
     13 C11         5.5126   -4.4685    0.8706 C.ar      1 <0>        -0.1194
     14 C12         6.1652   -5.7087    0.8740 C.ar      1 <0>         0.2403
     15 C13         7.1244   -5.9882   -0.1160 C.ar      1 <0>         0.0496
     16 C14         7.4162   -5.0349   -1.0866 C.ar      1 <0>        -0.0426
     17 C15         6.7634   -3.8224   -1.0816 C.ar      1 <0>        -0.1010
     18 N3          7.0745   -2.8153   -2.1209 N.pl3     1 <0>         0.0515
     19 O1          7.8045   -3.1018   -3.0410 O.2       1 <0>        -0.1876
     20 O2          6.5986   -1.7062   -2.0495 O.3       1 <0>        -0.1659
     21 N4          7.7755   -7.2087   -0.1243 N.am      1 <0>        -0.6299
     22 C16         7.4754   -8.1188    0.8277 C.2       1 <0>         0.4782
     23 C17         6.4643   -7.7850    1.8461 C.2       1 <0>         0.4318
     24 N5          5.8698   -6.6219    1.8224 N.2       1 <0>        -0.6000
     25 O3          6.1507   -8.6856    2.8086 O.3       1 <0>        -0.5868
     26 O4          8.0329   -9.2009    0.8438 O.2       1 <0>        -0.5055
     27 H1          0.9211    2.8066   -3.4975 H         1 <0>         0.1175
     28 H2          1.6597    3.4141   -1.2308 H         1 <0>         0.1200
     29 H3          3.0663    1.8667    0.0651 H         1 <0>         0.1295
     30 H4          2.9986   -0.9048   -3.2021 H         1 <0>         0.1201
     31 H5          1.5918    0.6546   -4.4833 H         1 <0>         0.1206
     32 H6          4.2216   -2.2340   -2.0829 H         1 <0>         0.1672
     33 H7          5.6479   -1.5018    1.8599 H         1 <0>         0.2093
     34 H8          4.7747   -4.2430    1.6262 H         1 <0>         0.1581
     35 H9          8.1527   -5.2477   -1.8473 H         1 <0>         0.1529
     36 H10         8.4378   -7.4082   -0.8043 H         1 <0>         0.4077
@<TRIPOS>BOND
     1    1    6 ar
     2    1    2 ar
     3    1   27 1
     4    2    3 ar
     5    2   28 1
     6    3    4 ar
     7    3   29 1
     8    4    5 ar
     9    4    7 1
    10    5    6 ar
    11    5   30 1
    12    6   31 1
    13    7   11 1
    14    7    8 2
    15    8    9 1
    16    8   32 1
    17    9   10 1
    18    9   12 1
    19   10   11 2
    20   10   33 1
    21   12   17 ar
    22   12   13 ar
    23   13   14 ar
    24   13   34 1
    25   14   24 1
    26   14   15 ar
    27   15   16 ar
    28   15   21 1
    29   16   17 ar
    30   16   35 1
    31   17   18 1
    32   18   19 2
    33   18   20 1
    34   21   22 am
    35   21   36 1
    36   22   23 1
    37   22   26 2
    38   23   24 2
    39   23   25 1
@<TRIPOS>MOLECULE
CHEMBL142391
   37    40     0     0     0
SMALL
USER_CHARGES

@<TRIPOS>ATOM
      1 C1          1.5474    2.1324   -2.9293 C.ar      1 <0>        -0.1190
      2 C2          1.9606    2.4718   -1.6535 C.ar      1 <0>        -0.1201
      3 C3          2.7490    1.6030   -0.9267 C.ar      1 <0>        -0.0932
      4 C4          3.1287    0.3817   -1.4804 C.ar      1 <0>        -0.0047
      5 C5          2.7095    0.0450   -2.7661 C.ar      1 <0>        -0.1085
      6 C6          1.9213    0.9215   -3.4838 C.ar      1 <0>        -0.1185
      7 C7          3.9765   -0.5561   -0.7041 C.2       1 <0>         0.0527
      8 C8          4.4199   -1.7693   -1.1255 C.2       1 <0>         0.0101
      9 N1          5.1640   -2.2933   -0.1031 N.pl3     1 <0>        -0.4336
     10 C9          5.1530   -1.3872    0.9097 C.2       1 <0>         0.2057
     11 N2          4.4486   -0.3533    0.5427 N.2       1 <0>        -0.4594
     12 C10         5.8165   -3.5347   -0.1010 C.ar      1 <0>         0.2060
     13 C11         5.5143   -4.4734    0.8725 C.ar      1 <0>        -0.1172
     14 C12         6.1602   -5.7035    0.8754 C.ar      1 <0>         0.1920
     15 C13         7.1136   -5.9888   -0.1047 C.ar      1 <0>         0.1292
     16 C14         7.4107   -5.0404   -1.0775 C.ar      1 <0>        -0.0395
     17 C15         6.7615   -3.8238   -1.0790 C.ar      1 <0>        -0.0408
     18 N3          7.0763   -2.8203   -2.1207 N.pl3     1 <0>         0.0297
     19 O1          7.8070   -3.1111   -3.0389 O.2       1 <0>        -0.1450
     20 O2          6.6026   -1.7100   -2.0533 O.3       1 <0>        -0.1283
     21 N4          7.7709   -7.2165   -0.1166 N.am      1 <0>        -0.6315
     22 C16         7.4899   -8.1431    0.8218 C.2       1 <0>         0.5123
     23 C17         6.4716   -7.8383    1.8677 C.2       1 <0>         0.5126
     24 N5          5.8511   -6.6413    1.8567 N.am      1 <0>        -0.6324
     25 O3          6.2045   -8.6599    2.7216 O.2       1 <0>        -0.4386
     26 O4          8.0602   -9.2156    0.8149 O.2       1 <0>        -0.4430
     27 H1          0.9268    2.8134   -3.4928 H         1 <0>         0.1220
     28 H2          1.6660    3.4187   -1.2256 H         1 <0>         0.1239
     29 H3          3.0713    1.8692    0.0691 H         1 <0>         0.1303
     30 H4          3.0011   -0.9000   -3.2001 H         1 <0>         0.1196
     31 H5          1.5955    0.6614   -4.4801 H         1 <0>         0.1240
     32 H6          4.2229   -2.2311   -2.0818 H         1 <0>         0.1737
     33 H7          5.6503   -1.5027    1.8614 H         1 <0>         0.2133
     34 H8          4.7770   -4.2487    1.6291 H         1 <0>         0.1731
     35 H9          8.1478   -5.2589   -1.8360 H         1 <0>         0.1794
     36 H10         5.1879   -6.4334    2.5334 H         1 <0>         0.4321
     37 H11         8.4317   -7.4054   -0.8011 H         1 <0>         0.4319
@<TRIPOS>BOND
     1    1    6 ar
     2    1    2 ar
     3    1   27 1
     4    2    3 ar
     5    2   28 1
     6    3    4 ar
     7    3   29 1
     8    4    5 ar
     9    4    7 1
    10    5    6 ar
    11    5   30 1
    12    6   31 1
    13    7   11 1
    14    7    8 2
    15    8    9 1
    16    8   32 1
    17    9   10 1
    18    9   12 1
    19   10   11 2
    20   10   33 1
    21   12   17 ar
    22   12   13 ar
    23   13   14 ar
    24   13   34 1
    25   14   24 1
    26   14   15 ar
    27   15   16 ar
    28   15   21 1
    29   16   17 ar
    30   16   35 1
    31   17   18 1
    32   18   19 2
    33   18   20 1
    34   21   22 am
    35   21   37 1
    36   22   23 1
    37   22   26 2
    38   23   24 am
    39   23   25 2
    40   24   36 1
@<TRIPOS>MOLECULE
CHEMBL23651
   87    91     0     0     0
SMALL
USER_CHARGES

@<TRIPOS>ATOM
      1 C1          0.0337    1.2178   -0.0990 C.ar      1 <0>        -0.1173
      2 C2          1.2116    1.9629   -0.0962 C.ar      1 <0>        -0.1059
      3 C3          2.4274    1.3516   -0.1079 C.ar      1 <0>        -0.1168
      4 C4          2.5000   -0.0519   -0.1227 C.ar      1 <0>        -0.0324
      5 C5          1.3020   -0.8096   -0.1251 C.ar      1 <0>        -0.0525
      6 C6          0.0649   -0.1426   -0.1132 C.ar      1 <0>        -0.0984
      7 C7          1.3744   -2.2127   -0.1394 C.ar      1 <0>        -0.0929
      8 C8          2.5905   -2.8242   -0.1507 C.ar      1 <0>        -0.1202
      9 C9          3.7681   -2.0795   -0.1478 C.ar      1 <0>        -0.0973
     10 C10         3.7367   -0.7186   -0.1346 C.ar      1 <0>        -0.0712
     11 C11         5.0216    0.0687   -0.1328 C.3       1 <0>        -0.0988
     12 C12         5.3916    0.4231    1.2845 C.2       1 <0>         0.5191
     13 O1          4.6817    0.0710    2.2026 O.2       1 <0>        -0.5079
     14 N1          6.5113    1.1314    1.5317 N.am      1 <0>        -0.6253
     15 C13         7.3780    1.5702    0.4295 C.3       1 <0>         0.1033
     16 C14         8.8085    1.0989    0.7094 C.3       1 <0>        -0.1285
     17 C15         9.2449    1.5975    2.0889 C.3       1 <0>        -0.1153
     18 C16         8.3241    1.0093    3.1606 C.3       1 <0>        -0.1430
     19 C17         6.8852    1.4845    2.9080 C.3       1 <0>         0.1107
     20 C18        10.6855    1.1578    2.3576 C.3       1 <0>        -0.0057
     21 N2         11.1453    1.7362    3.6273 N.4       1 <0>        -0.5118
     22 C19        12.5285    1.3141    3.8852 C.3       1 <0>        -0.0094
     23 C20        13.0073    1.9165    5.2076 C.3       1 <0>        -0.1504
     24 C21        14.4480    1.4769    5.4763 C.3       1 <0>        -0.1491
     25 C22        14.9268    2.0793    6.7987 C.3       1 <0>        -0.0104
     26 N3         16.3100    1.6572    7.0566 N.4       1 <0>        -0.5117
     27 C23        16.7698    2.2355    8.3263 C.3       1 <0>        -0.0061
     28 C24        18.2104    1.7959    8.5950 C.3       1 <0>        -0.1183
     29 C25        18.2509    0.2799    8.8006 C.3       1 <0>        -0.1494
     30 C26        19.6992   -0.1611    9.0349 C.3       1 <0>         0.1025
     31 N4         20.2548    0.6145   10.1523 N.pl3     1 <0>        -0.5849
     32 C27        20.1852    2.0811   10.0978 C.3       1 <0>         0.1000
     33 C28        18.7315    2.4970    9.8516 C.3       1 <0>        -0.1307
     34 C29        20.8355   -0.0278   11.2417 C.ar      1 <0>         0.3141
     35 C30        21.4635    0.7016   12.2511 C.ar      1 <0>        -0.2118
     36 C31        22.0263    0.0272   13.3141 C.ar      1 <0>         0.1767
     37 N5         21.9758   -1.2900   13.3830 N.ar      1 <0>        -0.4883
     38 C32        21.3912   -2.0156   12.4482 C.ar      1 <0>         0.1759
     39 C33        20.7995   -1.4175   11.3556 C.ar      1 <0>        -0.2154
     40 H1         -0.9182    1.7278   -0.0853 H         1 <0>         0.1273
     41 H2          1.1587    3.0415   -0.0848 H         1 <0>         0.1235
     42 H3          3.3318    1.9419   -0.1063 H         1 <0>         0.1160
     43 H4         -0.8560   -0.7067   -0.1148 H         1 <0>         0.1314
     44 H5          0.4700   -2.8029   -0.1410 H         1 <0>         0.1313
     45 H6          2.6434   -3.9029   -0.1616 H         1 <0>         0.1264
     46 H7          4.7200   -2.5895   -0.1566 H         1 <0>         0.1180
     47 H8          5.8161   -0.5314   -0.5764 H         1 <0>         0.1045
     48 H9          4.8890    0.9820   -0.7129 H         1 <0>         0.1068
     49 H10         7.0269    1.1361   -0.5067 H         1 <0>         0.1012
     50 H11         7.3587    2.6579    0.3602 H         1 <0>         0.0780
     51 H12         8.8433    0.0096    0.6885 H         1 <0>         0.0823
     52 H13         9.4789    1.4994   -0.0510 H         1 <0>         0.0913
     53 H14         9.1862    2.6855    2.1171 H         1 <0>         0.1002
     54 H15         8.3634   -0.0791    3.1166 H         1 <0>         0.0849
     55 H16         8.6497    1.3461    4.1448 H         1 <0>         0.0655
     56 H17         6.8264    2.5653    3.0367 H         1 <0>         0.0723
     57 H18         6.2087    0.9938    3.6077 H         1 <0>         0.1035
     58 H19        10.7284    0.0703    2.4171 H         1 <0>         0.1351
     59 H20        11.3278    1.5030    1.5474 H         1 <0>         0.1378
     60 H21        11.1055    2.7429    3.5722 H         1 <0>         0.4310
     61 H22        12.5714    0.2266    3.9447 H         1 <0>         0.1357
     62 H23        13.1708    1.6593    3.0750 H         1 <0>         0.1371
     63 H24        12.9644    3.0040    5.1481 H         1 <0>         0.1012
     64 H25        12.3650    1.5713    6.0178 H         1 <0>         0.0999
     65 H26        14.4909    0.3893    5.5358 H         1 <0>         0.0994
     66 H27        15.0903    1.8221    4.6661 H         1 <0>         0.1011
     67 H28        14.8839    3.1668    6.7392 H         1 <0>         0.1391
     68 H29        14.2845    1.7341    7.6089 H         1 <0>         0.1373
     69 H30        16.3497    0.6504    7.1117 H         1 <0>         0.4271
     70 H31        16.7269    3.3231    8.2668 H         1 <0>         0.1414
     71 H32        16.1275    1.8903    9.1365 H         1 <0>         0.1368
     72 H33        18.8365    2.0636    7.7438 H         1 <0>         0.1047
     73 H34        17.6450    0.0139    9.6667 H         1 <0>         0.0906
     74 H35        17.8579   -0.2181    7.9142 H         1 <0>         0.0801
     75 H36        19.7227   -1.2229    9.2798 H         1 <0>         0.1044
     76 H37        20.2869    0.0218    8.1353 H         1 <0>         0.0939
     77 H38        20.5294    2.4986   11.0440 H         1 <0>         0.1064
     78 H39        20.8125    2.4468    9.2849 H         1 <0>         0.0945
     79 H40        18.6805    3.5769    9.7133 H         1 <0>         0.1026
     80 H41        18.1210    2.2101   10.7078 H         1 <0>         0.0862
     81 H42        21.5087    1.7795   12.2007 H         1 <0>         0.1787
     82 H43        22.5150    0.5838   14.1001 H         1 <0>         0.2097
     83 H44        21.3720   -3.0914   12.5424 H         1 <0>         0.2084
     84 H45        20.3185   -2.0168   10.5968 H         1 <0>         0.1760
     85 H46        16.9046    1.9767    6.3067 H         1 <0>         0.4320
     86 H47        10.5507    1.4167    4.3773 H         1 <0>         0.4288
     87 H48        22.3802   -1.7377   14.1425 H         1 <0>         0.4533
@<TRIPOS>BOND
     1    1    6 ar
     2    1    2 ar
     3    1   40 1
     4    2    3 ar
     5    2   41 1
     6    3    4 ar
     7    3   42 1
     8    4   10 ar
     9    4    5 ar
    10    5    6 ar
    11    5    7 ar
    12    6   43 1
    13    7    8 ar
    14    7   44 1
    15    8    9 ar
    16    8   45 1
    17    9   10 ar
    18    9   46 1
    19   10   11 1
    20   11   12 1
    21   11   47 1
    22   11   48 1
    23   12   13 2
    24   12   14 am
    25   14   19 1
    26   14   15 1
    27   15   16 1
    28   15   49 1
    29   15   50 1
    30   16   17 1
    31   16   51 1
    32   16   52 1
    33   17   18 1
    34   17   20 1
    35   17   53 1
    36   18   19 1
    37   18   54 1
    38   18   55 1
    39   19   56 1
    40   19   57 1
    41   20   21 1
    42   20   58 1
    43   20   59 1
    44   21   22 1
    45   21   60 1
    46   21   86 1
    47   22   23 1
    48   22   61 1
    49   22   62 1
    50   23   24 1
    51   23   63 1
    52   23   64 1
    53   24   25 1
    54   24   65 1
    55   24   66 1
    56   25   26 1
    57   25   67 1
    58   25   68 1
    59   26   27 1
    60   26   69 1
    61   26   85 1
    62   27   28 1
    63   27   70 1
    64   27   71 1
    65   28   33 1
    66   28   29 1
    67   28   72 1
    68   29   30 1
    69   29   73 1
    70   29   74 1
    71   30   31 1
    72   30   75 1
    73   30   76 1
    74   31   32 1
    75   31   34 1
    76   32   33 1
    77   32   77 1
    78   32   78 1
    79   33   79 1
    80   33   80 1
    81   34   39 ar
    82   34   35 ar
    83   35   36 ar
    84   35   81 1
    85   36   37 ar
    86   36   82 1
    87   37   38 ar
    88   37   87 1
    89   38   39 ar
    90   38   83 1
    91   39   84 1
@<TRIPOS>MOLECULE
CHEMBL315554
   72    75     0     0     0
SMALL
USER_CHARGES

@<TRIPOS>ATOM
      1 C1         -0.0164    1.3567    0.0095 C.ar      1 <0>        -0.1175
      2 C2          1.1685    2.0906    0.0021 C.ar      1 <0>        -0.1069
      3 C3          2.3785    1.4679   -0.0132 C.ar      1 <0>        -0.1156
      4 C4          2.4378    0.0637   -0.0214 C.ar      1 <0>        -0.0326
      5 C5          1.2328   -0.6827   -0.0134 C.ar      1 <0>        -0.0523
      6 C6          0.0021   -0.0041    0.0020 C.ar      1 <0>        -0.0990
      7 C7          1.2920   -2.0865   -0.0210 C.ar      1 <0>        -0.0942
      8 C8          2.5022   -2.7094   -0.0359 C.ar      1 <0>        -0.1194
      9 C9          3.6867   -1.9757   -0.0433 C.ar      1 <0>        -0.0975
     10 C10         3.6681   -0.6146   -0.0367 C.ar      1 <0>        -0.0700
     11 C11         4.9603    0.1606   -0.0459 C.3       1 <0>        -0.0992
     12 C12         5.3414    0.5186    1.3675 C.2       1 <0>         0.5189
     13 O1          4.6334    0.1777    2.2913 O.2       1 <0>        -0.5088
     14 N1          6.4691    1.2175    1.6049 N.am      1 <0>        -0.6247
     15 C13         7.3338    1.6427    0.4958 C.3       1 <0>         0.1035
     16 C14         8.7613    1.1593    0.7702 C.3       1 <0>        -0.1285
     17 C15         9.2100    1.6607    2.1448 C.3       1 <0>        -0.1152
     18 C16         8.2897    1.0865    3.2244 C.3       1 <0>        -0.1435
     19 C17         6.8539    1.5739    2.9774 C.3       1 <0>         0.1109
     20 C18        10.6479    1.2089    2.4077 C.3       1 <0>        -0.0057
     21 N2         11.1201    1.7892    3.6719 N.4       1 <0>        -0.5116
     22 C19        12.5007    1.3554    3.9244 C.3       1 <0>        -0.0094
     23 C20        12.9925    1.9599    5.2411 C.3       1 <0>        -0.1494
     24 C21        14.4304    1.5081    5.5040 C.3       1 <0>        -0.1485
     25 C22        14.9222    2.1125    6.8207 C.3       1 <0>        -0.0104
     26 N3         16.3028    1.6787    7.0732 N.4       1 <0>        -0.3835
     27 C23        16.3289    0.2244    7.2701 C.3       1 <0>        -0.0115
     28 C24        17.7743   -0.2435    7.4529 C.3       1 <0>        -0.1472
     29 C25        18.3786    0.4499    8.6774 C.3       1 <0>        -0.1417
     30 C26        18.2785    1.9670    8.4938 C.3       1 <0>        -0.1478
     31 C27        16.8144    2.3530    8.2724 C.3       1 <0>        -0.0068
     32 H1         -0.9634    1.8756    0.0259 H         1 <0>         0.1268
     33 H2          1.1258    3.1698    0.0084 H         1 <0>         0.1233
     34 H3          3.2883    2.0497   -0.0195 H         1 <0>         0.1165
     35 H4         -0.9241   -0.5595    0.0082 H         1 <0>         0.1309
     36 H5          0.3820   -2.6682   -0.0147 H         1 <0>         0.1308
     37 H6          2.5450   -3.7886   -0.0417 H         1 <0>         0.1263
     38 H7          4.6338   -2.4947   -0.0548 H         1 <0>         0.1185
     39 H8          5.7467   -0.4491   -0.4909 H         1 <0>         0.1047
     40 H9          4.8331    1.0722   -0.6299 H         1 <0>         0.1065
     41 H10         6.9734    1.2073   -0.4362 H         1 <0>         0.1004
     42 H11         7.3242    2.7301    0.4212 H         1 <0>         0.0778
     43 H12         8.7858    0.0697    0.7546 H         1 <0>         0.0822
     44 H13         9.4312    1.5498    0.0041 H         1 <0>         0.0912
     45 H14         9.1617    2.7494    2.1678 H         1 <0>         0.0999
     46 H15         8.3186   -0.0024    3.1857 H         1 <0>         0.0851
     47 H16         8.6239    1.4251    4.2051 H         1 <0>         0.0667
     48 H17         6.8060    2.6558    3.1010 H         1 <0>         0.0724
     49 H18         6.1767    1.0931    3.6833 H         1 <0>         0.1034
     50 H19        10.6810    0.1213    2.4725 H         1 <0>         0.1349
     51 H20        11.2889    1.5440    1.5923 H         1 <0>         0.1374
     52 H21        11.0895    2.7960    3.6120 H         1 <0>         0.4305
     53 H22        12.5338    0.2679    3.9891 H         1 <0>         0.1356
     54 H23        13.1417    1.6906    3.1090 H         1 <0>         0.1368
     55 H24        12.9594    3.0474    5.1764 H         1 <0>         0.1001
     56 H25        12.3515    1.6248    6.0565 H         1 <0>         0.0992
     57 H26        14.4635    0.4205    5.5687 H         1 <0>         0.0989
     58 H27        15.0714    1.8432    4.6886 H         1 <0>         0.0992
     59 H28        14.8892    3.2001    6.7560 H         1 <0>         0.1346
     60 H29        14.2812    1.7774    7.6362 H         1 <0>         0.1331
     61 H30        15.7495   -0.0321    8.1570 H         1 <0>         0.1300
     62 H31        15.8956   -0.2675    6.3993 H         1 <0>         0.1275
     63 H32        17.7914   -1.3233    7.6008 H         1 <0>         0.1145
     64 H33        18.3546    0.0124    6.5664 H         1 <0>         0.0886
     65 H34        17.8300    0.1540    9.5715 H         1 <0>         0.0833
     66 H35        19.4253    0.1633    8.7790 H         1 <0>         0.0982
     67 H36        18.6559    2.4672    9.3857 H         1 <0>         0.1163
     68 H37        18.8692    2.2687    7.6289 H         1 <0>         0.0890
     69 H38        16.7396    3.4325    8.1416 H         1 <0>         0.1316
     70 H39        16.2247    2.0511    9.1379 H         1 <0>         0.1301
     71 H40        10.5267    1.4790    4.4268 H         1 <0>         0.4286
     72 H41        16.8800    1.9193    6.2813 H         1 <0>         0.4235
@<TRIPOS>BOND
     1    1    6 ar
     2    1    2 ar
     3    1   32 1
     4    2    3 ar
     5    2   33 1
     6    3    4 ar
     7    3   34 1
     8    4   10 ar
     9    4    5 ar
    10    5    6 ar
    11    5    7 ar
    12    6   35 1
    13    7    8 ar
    14    7   36 1
    15    8    9 ar
    16    8   37 1
    17    9   10 ar
    18    9   38 1
    19   10   11 1
    20   11   12 1
    21   11   39 1
    22   11   40 1
    23   12   13 2
    24   12   14 am
    25   14   19 1
    26   14   15 1
    27   15   16 1
    28   15   41 1
    29   15   42 1
    30   16   17 1
    31   16   43 1
    32   16   44 1
    33   17   18 1
    34   17   20 1
    35   17   45 1
    36   18   19 1
    37   18   46 1
    38   18   47 1
    39   19   48 1
    40   19   49 1
    41   20   21 1
    42   20   50 1
    43   20   51 1
    44   21   22 1
    45   21   52 1
    46   21   71 1
    47   22   23 1
    48   22   53 1
    49   22   54 1
    50   23   24 1
    51   23   55 1
    52   23   56 1
    53   24   25 1
    54   24   57 1
    55   24   58 1
    56   25   26 1
    57   25   59 1
    58   25   60 1
    59   26   31 1
    60   26   27 1
    61   26   72 1
    62   27   28 1
    63   27   61 1
    64   27   62 1
    65   28   29 1
    66   28   63 1
    67   28   64 1
    68   29   30 1
    69   29   65 1
    70   29   66 1
    71   30   31 1
    72   30   67 1
    73   30   68 1
    74   31   69 1
    75   31   70 1
@<TRIPOS>MOLECULE
CHEMBL24980
   33    36     0     0     0
SMALL
USER_CHARGES

@<TRIPOS>ATOM
      1 C1         -0.0166    1.3750    0.0096 C.ar      1 <0>        -0.1158
      2 C2          1.1679    2.0902    0.0021 C.ar      1 <0>        -0.1074
      3 C3          2.3818    1.4246   -0.0135 C.ar      1 <0>         0.0056
      4 C4          2.4102    0.0482   -0.0212 C.ar      1 <0>        -0.0618
      5 C5          1.2236   -0.6826   -0.0133 C.ar      1 <0>        -0.0555
      6 C6          0.0021   -0.0041    0.0020 C.ar      1 <0>        -0.1131
      7 C7          1.5392   -2.1310   -0.0243 C.2       1 <0>         0.1254
      8 C8          2.8683   -2.3149   -0.0385 C.2       1 <0>         0.0230
      9 N1          3.4209   -3.5831   -0.0512 N.pl3     1 <0>        -0.3551
     10 C9          4.6957   -4.0187   -0.0662 C.2       1 <0>         0.0074
     11 C10         4.6473   -5.4014   -0.0737 C.2       1 <0>        -0.0235
     12 N2          3.3540   -5.7661   -0.0630 N.2       1 <0>        -0.3715
     13 C11         2.6069   -4.6876   -0.0494 C.2       1 <0>         0.0965
     14 C12         1.1471   -4.4830   -0.0334 C.2       1 <0>         0.6074
     15 N3          0.6700   -3.2232   -0.0215 N.am      1 <0>        -0.6297
     16 O1          0.3875   -5.4340   -0.0315 O.2       1 <0>        -0.5079
     17 C13         5.8051   -6.3102   -0.0910 C.2       1 <0>         0.5641
     18 O2          6.9405   -5.8545   -0.1003 O.co2     1 <0>        -0.6843
     19 O3          5.6321   -7.5214   -0.0962 O.co2     1 <0>        -0.6699
     20 C14         3.5346   -0.9564   -0.0378 C.3       1 <0>        -0.0263
     21 C15         3.6705    2.2058   -0.0226 C.3       1 <0>        -0.1613
     22 C16         4.1499    2.3674   -1.4422 C.2       1 <0>         0.4977
     23 O4          3.5049    1.8923   -2.3613 O.co2     1 <0>        -0.6844
     24 O5          5.1828    2.9733   -1.6715 O.co2     1 <0>        -0.7014
     25 H1         -0.9607    1.8994    0.0260 H         1 <0>         0.1213
     26 H2          1.1455    3.1700    0.0082 H         1 <0>         0.1224
     27 H3         -0.9250   -0.5581    0.0083 H         1 <0>         0.1164
     28 H4          5.5851   -3.4059   -0.0718 H         1 <0>         0.1937
     29 H5          4.1373   -0.8321   -0.9374 H         1 <0>         0.1191
     30 H6          4.1551   -0.8417    0.8510 H         1 <0>         0.1085
     31 H7          3.5029    3.1884    0.4184 H         1 <0>         0.0712
     32 H8          4.4235    1.6713    0.5565 H         1 <0>         0.0730
     33 H9         -0.2883   -3.0734   -0.0109 H         1 <0>         0.4162
@<TRIPOS>BOND
     1    1    6 ar
     2    1    2 ar
     3    1   25 1
     4    2    3 ar
     5    2   26 1
     6    3    4 ar
     7    3   21 1
     8    4   20 1
     9    4    5 ar
    10    5    6 ar
    11    5    7 1
    12    6   27 1
    13    7   15 1
    14    7    8 2
    15    8    9 1
    16    8   20 1
    17    9   13 1
    18    9   10 1
    19   10   11 2
    20   10   28 1
    21   11   12 1
    22   11   17 1
    23   12   13 2
    24   13   14 1
    25   14   15 am
    26   14   16 2
    27   15   33 1
    28   17   18 2
    29   17   19 1
    30   20   29 1
    31   20   30 1
    32   21   22 1
    33   21   31 1
    34   21   32 1
    35   22   23 2
    36   22   24 1
@<TRIPOS>MOLECULE
CHEMBL24980
   32    35     0     0     0
SMALL
USER_CHARGES

@<TRIPOS>ATOM
      1 C1         -0.0166    1.3753    0.0096 C.ar      1 <0>        -0.1309
      2 C2          1.1682    2.0896    0.0021 C.ar      1 <0>        -0.1267
      3 C3          2.3809    1.4227   -0.0135 C.ar      1 <0>        -0.0100
      4 C4          2.4080    0.0452   -0.0212 C.ar      1 <0>        -0.0720
      5 C5          1.2218   -0.6828   -0.0133 C.ar      1 <0>        -0.0213
      6 C6          0.0021   -0.0041    0.0020 C.ar      1 <0>        -0.1049
      7 C7          1.5345   -2.1362   -0.0238 C.2       1 <0>         0.1785
      8 C8          2.8789   -2.3166   -0.0378 C.2       1 <0>        -0.1288
      9 N1          3.4199   -3.5752   -0.0491 N.pl3     1 <0>        -0.3155
     10 C9          4.6886   -4.0349   -0.0637 C.2       1 <0>        -0.0642
     11 C10         4.6170   -5.4139   -0.0695 C.2       1 <0>        -0.0387
     12 N2          3.3163   -5.7595   -0.0584 N.2       1 <0>        -0.4231
     13 C11         2.5839   -4.6661   -0.0461 C.2       1 <0>         0.1116
     14 C12         1.1395   -4.4287   -0.0308 C.2       1 <0>         0.5038
     15 N3          0.6941   -3.1951   -0.0214 N.2       1 <0>        -0.6183
     16 O1          0.2731   -5.4708   -0.0269 O.3       1 <0>        -0.6734
     17 C13         5.7605   -6.3415   -0.0856 C.2       1 <0>         0.5701
     18 O2          6.9029   -5.9040   -0.0951 O.co2     1 <0>        -0.7039
     19 O3          5.5681   -7.5496   -0.0894 O.co2     1 <0>        -0.6863
     20 C14         3.5362   -0.9555   -0.0373 C.3       1 <0>        -0.0038
     21 C15         3.6704    2.2025   -0.0226 C.3       1 <0>        -0.1528
     22 C16         4.1500    2.3636   -1.4422 C.2       1 <0>         0.4982
     23 O4          3.5045    1.8891   -2.3613 O.co2     1 <0>        -0.6807
     24 O5          5.1835    2.9684   -1.6715 O.co2     1 <0>        -0.7147
     25 H1         -0.9605    1.9000    0.0260 H         1 <0>         0.1104
     26 H2          1.1468    3.1693    0.0081 H         1 <0>         0.1102
     27 H3         -0.9252   -0.5578    0.0083 H         1 <0>         0.1184
     28 H4          5.5886   -3.4379   -0.0702 H         1 <0>         0.1698
     29 H5          4.1388   -0.8286   -0.9367 H         1 <0>         0.0900
     30 H6          4.1562   -0.8377    0.8514 H         1 <0>         0.0786
     31 H7          3.5038    3.1853    0.4183 H         1 <0>         0.0628
     32 H8          4.4228    1.6672    0.5565 H         1 <0>         0.0679
@<TRIPOS>BOND
     1    1    6 ar
     2    1    2 ar
     3    1   25 1
     4    2    3 ar
     5    2   26 1
     6    3    4 ar
     7    3   21 1
     8    4   20 1
     9    4    5 ar
    10    5    6 ar
    11    5    7 1
    12    6   27 1
    13    7   15 1
    14    7    8 2
    15    8    9 1
    16    8   20 1
    17    9   13 1
    18    9   10 1
    19   10   11 2
    20   10   28 1
    21   11   12 1
    22   11   17 1
    23   12   13 2
    24   13   14 1
    25   14   15 2
    26   14   16 1
    27   17   18 2
    28   17   19 1
    29   20   29 1
    30   20   30 1
    31   21   22 1
    32   21   31 1
    33   21   32 1
    34   22   23 2
    35   22   24 1
@<TRIPOS>MOLECULE
CHEMBL47554
   43    46     0     0     0
SMALL
USER_CHARGES

@<TRIPOS>ATOM
      1 C1         -0.0167    1.3769    0.0096 C.ar      1 <0>        -0.1017
      2 C2          1.1704    2.0865    0.0021 C.ar      1 <0>        -0.0839
      3 C3          2.3797    1.4168   -0.0131 C.ar      1 <0>        -0.0999
      4 C4          2.4057    0.0346   -0.0208 C.ar      1 <0>        -0.0205
      5 C5          1.2145   -0.6807   -0.0132 C.ar      1 <0>         0.0990
      6 C6          0.0021   -0.0041    0.0020 C.ar      1 <0>        -0.0849
      7 N1          1.2367   -2.0814   -0.0215 N.am      1 <0>        -0.4949
      8 C7          1.2532   -2.7626    1.1565 C.2       1 <0>         0.3987
      9 N2          1.2741   -4.0585    1.2308 N.2       1 <0>        -0.5069
     10 C8          1.2805   -4.8349    0.1181 C.ar      1 <0>         0.1452
     11 C9          1.3025   -6.2290    0.1987 C.ar      1 <0>        -0.0751
     12 C10         1.3079   -6.9793   -0.9551 C.ar      1 <0>        -0.1027
     13 C11         1.2922   -6.3661   -2.2035 C.ar      1 <0>         0.0889
     14 C12         1.2708   -4.9906   -2.3081 C.ar      1 <0>        -0.0755
     15 C13         1.2641   -4.2144   -1.1507 C.ar      1 <0>        -0.1658
     16 C14         1.2358   -2.7454   -1.2008 C.2       1 <0>         0.5568
     17 O1          1.2161   -2.1492   -2.2620 O.2       1 <0>        -0.4810
     18 F1          1.2983   -7.1234   -3.3223 F         1 <0>        -0.1288
     19 C15         1.2475   -1.9726    2.4398 C.3       1 <0>         0.1763
     20 N3          1.2675   -2.8926    3.5797 N.pl3     1 <0>        -0.7327
     21 C16         1.2664   -2.3899    4.8832 C.ar      1 <0>         0.2176
     22 C17         1.2404   -1.0166    5.0986 C.ar      1 <0>        -0.1720
     23 C18         1.2392   -0.5141    6.3861 C.ar      1 <0>        -0.0689
     24 C19         1.2637   -1.3719    7.4669 C.ar      1 <0>        -0.1270
     25 C20         1.2899   -2.7529    7.2617 C.ar      1 <0>         0.0212
     26 C21         1.2853   -3.2604    5.9618 C.ar      1 <0>        -0.1426
     27 C22         1.3158   -3.6453    8.3813 C.1       1 <0>         0.2522
     28 N4          1.3363   -4.3532    9.2695 N.1       1 <0>        -0.4129
     29 Cl1         3.9243   -0.8061   -0.0404 Cl        1 <0>        -0.0481
     30 H1         -0.9595    1.9033    0.0260 H         1 <0>         0.1436
     31 H2          1.1526    3.1664    0.0077 H         1 <0>         0.1443
     32 H3          3.3050    1.9738   -0.0193 H         1 <0>         0.1466
     33 H4         -0.9255   -0.5572    0.0083 H         1 <0>         0.1393
     34 H5          1.3156   -6.7162    1.1624 H         1 <0>         0.1545
     35 H6          1.3249   -8.0572   -0.8904 H         1 <0>         0.1518
     36 H7          1.2594   -4.5189   -3.2796 H         1 <0>         0.1533
     37 H8          2.1278   -1.3308    2.4753 H         1 <0>         0.0963
     38 H9          0.3481   -1.3584    2.4843 H         1 <0>         0.0979
     39 H10         1.2816   -3.8508    3.4294 H         1 <0>         0.4196
     40 H11         1.2215   -0.3401    4.2569 H         1 <0>         0.1261
     41 H12         1.2193    0.5537    6.5469 H         1 <0>         0.1337
     42 H13         1.2630   -0.9752    8.4714 H         1 <0>         0.1301
     43 H14         1.3006   -4.3276    5.7967 H         1 <0>         0.1325
@<TRIPOS>BOND
     1    1    6 ar
     2    1    2 ar
     3    1   30 1
     4    2    3 ar
     5    2   31 1
     6    3    4 ar
     7    3   32 1
     8    4    5 ar
     9    4   29 1
    10    5    6 ar
    11    5    7 1
    12    6   33 1
    13    7   16 am
    14    7    8 1
    15    8    9 2
    16    8   19 1
    17    9   10 1
    18   10   15 ar
    19   10   11 ar
    20   11   12 ar
    21   11   34 1
    22   12   13 ar
    23   12   35 1
    24   13   14 ar
    25   13   18 1
    26   14   15 ar
    27   14   36 1
    28   15   16 1
    29   16   17 2
    30   19   20 1
    31   19   37 1
    32   19   38 1
    33   20   21 1
    34   20   39 1
    35   21   26 ar
    36   21   22 ar
    37   22   23 ar
    38   22   40 1
    39   23   24 ar
    40   23   41 1
    41   24   25 ar
    42   24   42 1
    43   25   26 ar
    44   25   27 1
    45   26   43 1
    46   27   28 3
@<TRIPOS>MOLECULE
CHEMBL325878
   50    53     0     0     0
SMALL
USER_CHARGES

@<TRIPOS>ATOM
      1 C1          1.4756   -0.5785    2.6308 C.ar      1 <0>        -0.0672
      2 C2          2.6597    0.1076    2.5465 C.ar      1 <0>        -0.1305
      3 C3          2.7038    1.3489    1.9183 C.ar      1 <0>         0.1441
      4 C4          1.5471    1.8985    1.3730 C.ar      1 <0>        -0.1563
      5 C5          0.3591    1.2185    1.4527 C.ar      1 <0>        -0.0699
      6 C6          0.3106   -0.0294    2.0838 C.ar      1 <0>        -0.1459
      7 C7         -0.9628   -0.7630    2.1716 C.2       1 <0>         0.5221
      8 O1         -1.0034   -1.8541    2.7234 O.co2     1 <0>        -0.6894
      9 O2         -1.9804   -0.2814    1.6928 O.co2     1 <0>        -0.6931
     10 N1          3.9088    2.0433    1.8356 N.am      1 <0>        -0.6491
     11 C8          5.0607    1.3728    1.6357 C.2       1 <0>         0.6443
     12 O3          5.0385    0.1761    1.4262 O.2       1 <0>        -0.5465
     13 O4          6.2359    2.0288    1.6681 O.3       1 <0>        -0.3670
     14 C9          7.4171    1.2552    1.4479 C.3       1 <0>         0.0929
     15 C10         8.6443    2.1659    1.5215 C.3       1 <0>        -0.0202
     16 C11         9.8899    1.3501    1.2893 C.2       1 <0>        -0.0076
     17 C12        10.8324    1.5953    0.3594 C.2       1 <0>        -0.0318
     18 N2         11.7845    0.6175    0.4915 N.pl3     1 <0>        -0.3982
     19 C13        11.3841   -0.1938    1.5049 C.2       1 <0>         0.2346
     20 N3         10.2542    0.2576    1.9770 N.2       1 <0>        -0.4878
     21 C14        12.9503    0.4809   -0.2741 C.ar      1 <0>         0.0562
     22 C15        13.8539    1.5046   -0.3024 C.ar      1 <0>        -0.0095
     23 C16        15.0254    1.3719   -1.0689 C.ar      1 <0>        -0.0048
     24 C17        15.2439    0.1320   -1.8193 C.ar      1 <0>         0.1624
     25 C18        14.2765   -0.8845   -1.7492 C.ar      1 <0>        -0.0448
     26 C19        13.1648   -0.7029   -0.9873 C.ar      1 <0>        -0.0209
     27 N4         12.1542   -1.7821   -0.9158 N.pl3     1 <0>         0.0397
     28 O5         12.3812   -2.8572   -1.4201 O.2       1 <0>        -0.1785
     29 O6         11.1019   -1.5885   -0.3531 O.3       1 <0>        -0.1601
     30 N5         16.3543   -0.0043   -2.5505 N.ar      1 <0>        -0.5716
     31 C20        17.2343    0.9769   -2.5853 C.ar      1 <0>         0.4049
     32 C21        17.0237    2.1702   -1.8624 C.ar      1 <0>         0.0505
     33 N6         15.9370    2.3411   -1.1286 N.ar      1 <0>        -0.3955
     34 C22        18.0340    3.2469   -1.9267 C.2       1 <0>         0.5374
     35 O7         19.0422    3.0995   -2.6025 O.co2     1 <0>        -0.6462
     36 O8         17.8616    4.2850   -1.3043 O.co2     1 <0>        -0.6861
     37 O9         18.3587    0.8370   -3.3267 O.3       1 <0>        -0.5995
     38 H1          1.4430   -1.5435    3.1148 H         1 <0>         0.1298
     39 H2          3.5593   -0.3155    2.9685 H         1 <0>         0.1259
     40 H3          1.5853    2.8621    0.8867 H         1 <0>         0.1187
     41 H4         -0.5380    1.6458    1.0296 H         1 <0>         0.1297
     42 H5          3.9188    3.0095    1.9219 H         1 <0>         0.4117
     43 H6          7.4924    0.4816    2.2120 H         1 <0>         0.0790
     44 H7          7.3684    0.7900    0.4633 H         1 <0>         0.0694
     45 H8          8.5690    2.9396    0.7574 H         1 <0>         0.0817
     46 H9          8.6930    2.6311    2.5060 H         1 <0>         0.0812
     47 H10        10.8373    2.4062   -0.3539 H         1 <0>         0.1705
     48 H11        11.9141   -1.0642    1.8627 H         1 <0>         0.1909
     49 H12        13.6700    2.4088    0.2590 H         1 <0>         0.1448
     50 H13        14.4167   -1.8062   -2.2942 H         1 <0>         0.1554
@<TRIPOS>BOND
     1    1    6 ar
     2    1    2 ar
     3    1   38 1
     4    2    3 ar
     5    2   39 1
     6    3    4 ar
     7    3   10 1
     8    4    5 ar
     9    4   40 1
    10    5    6 ar
    11    5   41 1
    12    6    7 1
    13    7    8 2
    14    7    9 1
    15   10   11 am
    16   10   42 1
    17   11   12 2
    18   11   13 1
    19   13   14 1
    20   14   15 1
    21   14   43 1
    22   14   44 1
    23   15   16 1
    24   15   45 1
    25   15   46 1
    26   16   20 1
    27   16   17 2
    28   17   18 1
    29   17   47 1
    30   18   19 1
    31   18   21 1
    32   19   20 2
    33   19   48 1
    34   21   26 ar
    35   21   22 ar
    36   22   23 ar
    37   22   49 1
    38   23   33 ar
    39   23   24 ar
    40   24   25 ar
    41   24   30 ar
    42   25   26 ar
    43   25   50 1
    44   26   27 1
    45   27   28 2
    46   27   29 1
    47   30   31 ar
    48   31   32 ar
    49   31   37 1
    50   32   33 ar
    51   32   34 1
    52   34   35 2
    53   34   36 1
@<TRIPOS>MOLECULE
CHEMBL325878
   51    54     0     0     0
SMALL
USER_CHARGES

@<TRIPOS>ATOM
      1 C1          1.4756   -0.5785    2.6308 C.ar      1 <0>        -0.0677
      2 C2          2.6597    0.1076    2.5465 C.ar      1 <0>        -0.1300
      3 C3          2.7038    1.3489    1.9183 C.ar      1 <0>         0.1393
      4 C4          1.5471    1.8985    1.3730 C.ar      1 <0>        -0.1545
      5 C5          0.3591    1.2185    1.4527 C.ar      1 <0>        -0.0697
      6 C6          0.3106   -0.0294    2.0838 C.ar      1 <0>        -0.1423
      7 C7         -0.9628   -0.7630    2.1716 C.2       1 <0>         0.5208
      8 O1         -1.0034   -1.8541    2.7234 O.co2     1 <0>        -0.6881
      9 O2         -1.9804   -0.2814    1.6928 O.co2     1 <0>        -0.6908
     10 N1          3.9088    2.0433    1.8356 N.am      1 <0>        -0.6466
     11 C8          5.0607    1.3728    1.6357 C.2       1 <0>         0.6450
     12 O3          5.0385    0.1761    1.4262 O.2       1 <0>        -0.5466
     13 O4          6.2359    2.0288    1.6681 O.3       1 <0>        -0.3673
     14 C9          7.4171    1.2552    1.4479 C.3       1 <0>         0.0927
     15 C10         8.6443    2.1659    1.5215 C.3       1 <0>        -0.0274
     16 C11         9.8899    1.3501    1.2893 C.2       1 <0>         0.0143
     17 C12        10.8324    1.5953    0.3594 C.2       1 <0>        -0.0351
     18 N2         11.7845    0.6175    0.4915 N.pl3     1 <0>        -0.4283
     19 C13        11.3841   -0.1938    1.5049 C.2       1 <0>         0.2413
     20 N3         10.2542    0.2576    1.9770 N.2       1 <0>        -0.4723
     21 C14        12.9503    0.4809   -0.2741 C.ar      1 <0>         0.1612
     22 C15        13.8539    1.5046   -0.3024 C.ar      1 <0>        -0.0435
     23 C16        15.0254    1.3719   -1.0689 C.ar      1 <0>         0.0989
     24 C17        15.2439    0.1320   -1.8193 C.ar      1 <0>         0.0867
     25 C18        14.2765   -0.8845   -1.7492 C.ar      1 <0>         0.0194
     26 C19        13.1648   -0.7029   -0.9873 C.ar      1 <0>        -0.0385
     27 N4         12.1542   -1.7821   -0.9158 N.pl3     1 <0>         0.0304
     28 O5         12.3812   -2.8572   -1.4201 O.2       1 <0>        -0.1513
     29 O6         11.1019   -1.5885   -0.3531 O.3       1 <0>        -0.1334
     30 N5         16.3543   -0.0043   -2.5505 N.ar      1 <0>        -0.4509
     31 C20        17.2343    0.9769   -2.5853 C.ar      1 <0>         0.3407
     32 C21        17.0237    2.1702   -1.8624 C.ar      1 <0>         0.0862
     33 N6         15.9370    2.3411   -1.1286 N.ar      1 <0>        -0.3713
     34 C22        18.0340    3.2469   -1.9267 C.2       1 <0>         0.5320
     35 O7         19.0422    3.0995   -2.6025 O.co2     1 <0>        -0.6452
     36 O8         17.8616    4.2850   -1.3043 O.co2     1 <0>        -0.6404
     37 O9         18.3587    0.8370   -3.3267 O.3       1 <0>        -0.4403
     38 H1          1.4430   -1.5435    3.1148 H         1 <0>         0.1305
     39 H2          3.5593   -0.3155    2.9685 H         1 <0>         0.1249
     40 H3          1.5853    2.8621    0.8867 H         1 <0>         0.1190
     41 H4         -0.5380    1.6458    1.0296 H         1 <0>         0.1310
     42 H5          3.9188    3.0095    1.9219 H         1 <0>         0.4121
     43 H6          7.4924    0.4816    2.2120 H         1 <0>         0.0795
     44 H7          7.3684    0.7900    0.4633 H         1 <0>         0.0692
     45 H8          8.5690    2.9396    0.7574 H         1 <0>         0.0861
     46 H9          8.6930    2.6311    2.5060 H         1 <0>         0.0876
     47 H10        10.8373    2.4062   -0.3539 H         1 <0>         0.1783
     48 H11        11.9141   -1.0642    1.8627 H         1 <0>         0.1983
     49 H12        13.6700    2.4088    0.2590 H         1 <0>         0.1700
     50 H13        14.4167   -1.8062   -2.2942 H         1 <0>         0.1768
     51 H14        18.2692    1.1448   -4.2390 H         1 <0>         0.4090
@<TRIPOS>BOND
     1    1    6 ar
     2    1    2 ar
     3    1   38 1
     4    2    3 ar
     5    2   39 1
     6    3    4 ar
     7    3   10 1
     8    4    5 ar
     9    4   40 1
    10    5    6 ar
    11    5   41 1
    12    6    7 1
    13    7    8 2
    14    7    9 1
    15   10   11 am
    16   10   42 1
    17   11   12 2
    18   11   13 1
    19   13   14 1
    20   14   15 1
    21   14   43 1
    22   14   44 1
    23   15   16 1
    24   15   45 1
    25   15   46 1
    26   16   20 1
    27   16   17 2
    28   17   18 1
    29   17   47 1
    30   18   19 1
    31   18   21 1
    32   19   20 2
    33   19   48 1
    34   21   26 ar
    35   21   22 ar
    36   22   23 ar
    37   22   49 1
    38   23   33 ar
    39   23   24 ar
    40   24   25 ar
    41   24   30 ar
    42   25   26 ar
    43   25   50 1
    44   26   27 1
    45   27   28 2
    46   27   29 1
    47   30   31 ar
    48   31   32 ar
    49   31   37 1
    50   32   33 ar
    51   32   34 1
    52   34   35 2
    53   34   36 1
    54   37   51 1
@<TRIPOS>MOLECULE
CHEMBL131766
   33    36     0     0     0
SMALL
USER_CHARGES

@<TRIPOS>ATOM
      1 C1         -0.0161    1.3369    0.0094 C.2       1 <0>        -0.0416
      2 C2          1.2576    1.7745   -0.0004 C.2       1 <0>        -0.0352
      3 N1          2.0593    0.6629   -0.0140 N.pl3     1 <0>        -0.3941
      4 C3          1.2396   -0.4195   -0.0120 C.2       1 <0>         0.1881
      5 N2          0.0021   -0.0041    0.0020 N.2       1 <0>        -0.4957
      6 C4          3.4634    0.6466   -0.0279 C.ar      1 <0>         0.0606
      7 C5          4.1564   -0.1438    0.8791 C.ar      1 <0>        -0.0498
      8 C6          5.5403   -0.1537    0.8544 C.ar      1 <0>        -0.0307
      9 C7          6.2444    0.6252   -0.0862 C.ar      1 <0>         0.2584
     10 C8          5.5407    1.4125   -0.9794 C.ar      1 <0>        -0.1521
     11 C9          4.1573    1.4176   -0.9537 C.ar      1 <0>         0.0051
     12 Cl1         3.2800    2.4011   -2.0837 Cl        1 <0>        -0.0686
     13 N3          7.6388    0.5693   -0.1010 N.pl3     1 <0>        -0.7189
     14 C10         8.4000    0.3068    1.1272 C.3       1 <0>         0.3226
     15 N4          7.7149   -0.7335    1.9064 N.pl3     1 <0>        -0.2883
     16 C11         6.3583   -0.9502    1.7886 C.2       1 <0>         0.0013
     17 C12         6.0306   -1.9468    2.6378 C.2       1 <0>        -0.1595
     18 C13         7.2484   -2.3218    3.2579 C.2       1 <0>        -0.0334
     19 N5          8.1999   -1.5492    2.7606 N.2       1 <0>        -0.2182
     20 C14         7.4226   -3.3782    4.2710 C.2       1 <0>         0.5689
     21 O1          6.4573   -4.0263    4.6510 O.co2     1 <0>        -0.6915
     22 O2          8.5323   -3.6068    4.7317 O.co2     1 <0>        -0.6786
     23 C15         8.4899    1.5703    1.9436 C.2       1 <0>         0.4847
     24 O3          7.8212    2.5428    1.6375 O.co2     1 <0>        -0.6678
     25 O4          9.2313    1.6201    2.9102 O.co2     1 <0>        -0.6602
     26 H1         -0.8993    1.9583    0.0252 H         1 <0>         0.1664
     27 H2          1.5845    2.8038    0.0017 H         1 <0>         0.1698
     28 H3          1.5581   -1.4515   -0.0209 H         1 <0>         0.2053
     29 H4          3.6202   -0.7454    1.5981 H         1 <0>         0.1443
     30 H5          6.0703    2.0192   -1.6990 H         1 <0>         0.1410
     31 H6          8.1129    0.7056   -0.9362 H         1 <0>         0.4072
     32 H7          9.4029   -0.0329    0.8686 H         1 <0>         0.1095
     33 H8          5.0507   -2.3677    2.8083 H         1 <0>         0.1512
@<TRIPOS>BOND
     1    1    5 1
     2    1    2 2
     3    1   26 1
     4    2    3 1
     5    2   27 1
     6    3    4 1
     7    3    6 1
     8    4    5 2
     9    4   28 1
    10    6   11 ar
    11    6    7 ar
    12    7    8 ar
    13    7   29 1
    14    8   16 1
    15    8    9 ar
    16    9   10 ar
    17    9   13 1
    18   10   11 ar
    19   10   30 1
    20   11   12 1
    21   13   14 1
    22   13   31 1
    23   14   15 1
    24   14   23 1
    25   14   32 1
    26   15   19 1
    27   15   16 1
    28   16   17 2
    29   17   18 1
    30   17   33 1
    31   18   19 2
    32   18   20 1
    33   20   21 2
    34   20   22 1
    35   23   24 2
    36   23   25 1
@<TRIPOS>MOLECULE
CHEMBL131766
   33    36     0     0     0
SMALL
USER_CHARGES

@<TRIPOS>ATOM
      1 C1         -0.0161    1.3369    0.0094 C.2       1 <0>        -0.0406
      2 C2          1.2576    1.7745   -0.0004 C.2       1 <0>        -0.0392
      3 N1          2.0593    0.6629   -0.0140 N.pl3     1 <0>        -0.3941
      4 C3          1.2396   -0.4195   -0.0120 C.2       1 <0>         0.1923
      5 N2          0.0021   -0.0041    0.0020 N.2       1 <0>        -0.4958
      6 C4          3.4634    0.6466   -0.0279 C.ar      1 <0>         0.0604
      7 C5          4.1564   -0.1438    0.8791 C.ar      1 <0>        -0.0500
      8 C6          5.5403   -0.1499    0.8577 C.ar      1 <0>        -0.0316
      9 C7          6.2448    0.6430   -0.0710 C.ar      1 <0>         0.2551
     10 C8          5.5408    1.4205   -0.9726 C.ar      1 <0>        -0.1519
     11 C9          4.1573    1.4176   -0.9537 C.ar      1 <0>         0.0052
     12 Cl1         3.2798    2.3915   -2.0918 Cl        1 <0>        -0.0682
     13 N3          7.6401    0.6339   -0.0457 N.pl3     1 <0>        -0.7169
     14 C10         8.3827   -0.5568    0.3876 C.3       1 <0>         0.3217
     15 N4          7.7068   -1.1506    1.5493 N.pl3     1 <0>        -0.2865
     16 C11         6.3579   -0.9691    1.7724 C.2       1 <0>        -0.0011
     17 C12         6.0366   -1.6471    2.8944 C.2       1 <0>        -0.1586
     18 C13         7.2502   -2.2302    3.3363 C.2       1 <0>        -0.0344
     19 N5          8.1938   -1.8803    2.4770 N.2       1 <0>        -0.2152
     20 C14         7.4286   -3.0727    4.5326 C.2       1 <0>         0.5690
     21 O1          6.4713   -3.3261    5.2505 O.co2     1 <0>        -0.6919
     22 O2          8.5340   -3.5184    4.8075 O.co2     1 <0>        -0.6789
     23 C15         8.4266   -1.5596   -0.7364 C.2       1 <0>         0.4838
     24 O3          7.8888   -1.3061   -1.8009 O.co2     1 <0>        -0.6695
     25 O4          8.9999   -2.6244   -0.5814 O.co2     1 <0>        -0.6573
     26 H1         -0.8993    1.9583    0.0252 H         1 <0>         0.1660
     27 H2          1.5845    2.8038    0.0017 H         1 <0>         0.1688
     28 H3          1.5581   -1.4515   -0.0209 H         1 <0>         0.2059
     29 H4          3.6201   -0.7489    1.5951 H         1 <0>         0.1444
     30 H5          6.0704    2.0257   -1.6935 H         1 <0>         0.1416
     31 H6          8.1274    1.4268   -0.3190 H         1 <0>         0.4074
     32 H7          9.3982   -0.2724    0.6631 H         1 <0>         0.1094
     33 H8          5.0637   -1.7276    3.3563 H         1 <0>         0.1507
@<TRIPOS>BOND
     1    1    5 1
     2    1    2 2
     3    1   26 1
     4    2    3 1
     5    2   27 1
     6    3    4 1
     7    3    6 1
     8    4    5 2
     9    4   28 1
    10    6   11 ar
    11    6    7 ar
    12    7    8 ar
    13    7   29 1
    14    8   16 1
    15    8    9 ar
    16    9   10 ar
    17    9   13 1
    18   10   11 ar
    19   10   30 1
    20   11   12 1
    21   13   14 1
    22   13   31 1
    23   14   15 1
    24   14   23 1
    25   14   32 1
    26   15   19 1
    27   15   16 1
    28   16   17 2
    29   17   18 1
    30   17   33 1
    31   18   19 2
    32   18   20 1
    33   20   21 2
    34   20   22 1
    35   23   24 2
    36   23   25 1
@<TRIPOS>MOLECULE
CHEMBL23652
   76    79     0     0     0
SMALL
USER_CHARGES

@<TRIPOS>ATOM
      1 C1         -0.0164    1.3567    0.0095 C.ar      1 <0>        -0.1173
      2 C2          1.1685    2.0906    0.0021 C.ar      1 <0>        -0.1059
      3 C3          2.3785    1.4679   -0.0132 C.ar      1 <0>        -0.1169
      4 C4          2.4378    0.0637   -0.0214 C.ar      1 <0>        -0.0325
      5 C5          1.2328   -0.6827   -0.0134 C.ar      1 <0>        -0.0524
      6 C6          0.0021   -0.0041    0.0020 C.ar      1 <0>        -0.0982
      7 C7          1.2920   -2.0865   -0.0210 C.ar      1 <0>        -0.0927
      8 C8          2.5022   -2.7094   -0.0359 C.ar      1 <0>        -0.1203
      9 C9          3.6867   -1.9757   -0.0433 C.ar      1 <0>        -0.0970
     10 C10         3.6681   -0.6146   -0.0367 C.ar      1 <0>        -0.0716
     11 C11         4.9603    0.1606   -0.0459 C.3       1 <0>        -0.0986
     12 C12         5.3414    0.5186    1.3675 C.2       1 <0>         0.5190
     13 O1          4.6334    0.1777    2.2913 O.2       1 <0>        -0.5075
     14 N1          6.4691    1.2175    1.6049 N.am      1 <0>        -0.6255
     15 C13         7.3338    1.6427    0.4958 C.3       1 <0>         0.1033
     16 C14         8.7613    1.1593    0.7702 C.3       1 <0>        -0.1286
     17 C15         9.2100    1.6607    2.1448 C.3       1 <0>        -0.1151
     18 C16         8.2897    1.0865    3.2244 C.3       1 <0>        -0.1430
     19 C17         6.8539    1.5739    2.9774 C.3       1 <0>         0.1107
     20 C18        10.6479    1.2089    2.4077 C.3       1 <0>        -0.0058
     21 N2         11.1201    1.7892    3.6719 N.4       1 <0>        -0.5118
     22 C19        12.5007    1.3554    3.9244 C.3       1 <0>        -0.0095
     23 C20        12.9925    1.9599    5.2411 C.3       1 <0>        -0.1504
     24 C21        14.4304    1.5081    5.5040 C.3       1 <0>        -0.1495
     25 C22        14.9222    2.1125    6.8207 C.3       1 <0>        -0.0100
     26 N3         16.3028    1.6787    7.0732 N.4       1 <0>        -0.5100
     27 C23        16.7750    2.2591    8.3374 C.3       1 <0>        -0.0059
     28 C24        18.2129    1.8073    8.6003 C.3       1 <0>        -0.1772
     29 C25        18.7047    2.4117    9.9170 C.3       1 <0>         0.1019
     30 N4         20.0816    1.9791   10.1688 N.pl3     1 <0>        -0.4231
     31 C26        20.4686    0.8555   10.8481 C.2       1 <0>         0.0204
     32 C27        21.8152    0.8424   10.8444 C.2       1 <0>         0.0195
     33 N5         22.2389    1.9284   10.1809 N.pl3     1 <0>        -0.4684
     34 C28        21.2059    2.6113    9.7690 C.cat     1 <0>         0.2930
     35 H1         -0.9634    1.8756    0.0259 H         1 <0>         0.1274
     36 H2          1.1258    3.1698    0.0084 H         1 <0>         0.1234
     37 H3          3.2883    2.0497   -0.0195 H         1 <0>         0.1159
     38 H4         -0.9241   -0.5595    0.0082 H         1 <0>         0.1315
     39 H5          0.3820   -2.6682   -0.0147 H         1 <0>         0.1314
     40 H6          2.5450   -3.7886   -0.0417 H         1 <0>         0.1265
     41 H7          4.6338   -2.4947   -0.0548 H         1 <0>         0.1180
     42 H8          5.7467   -0.4491   -0.4909 H         1 <0>         0.1044
     43 H9          4.8331    1.0722   -0.6299 H         1 <0>         0.1067
     44 H10         6.9734    1.2073   -0.4362 H         1 <0>         0.1013
     45 H11         7.3242    2.7301    0.4212 H         1 <0>         0.0779
     46 H12         8.7858    0.0697    0.7546 H         1 <0>         0.0824
     47 H13         9.4312    1.5498    0.0041 H         1 <0>         0.0912
     48 H14         9.1617    2.7494    2.1678 H         1 <0>         0.1000
     49 H15         8.3186   -0.0024    3.1857 H         1 <0>         0.0851
     50 H16         8.6239    1.4251    4.2051 H         1 <0>         0.0653
     51 H17         6.8060    2.6558    3.1010 H         1 <0>         0.0722
     52 H18         6.1767    1.0931    3.6833 H         1 <0>         0.1037
     53 H19        10.6810    0.1213    2.4725 H         1 <0>         0.1355
     54 H20        11.2889    1.5440    1.5923 H         1 <0>         0.1378
     55 H21        11.0895    2.7960    3.6120 H         1 <0>         0.4308
     56 H22        12.5338    0.2679    3.9891 H         1 <0>         0.1361
     57 H23        13.1417    1.6906    3.1090 H         1 <0>         0.1368
     58 H24        12.9594    3.0474    5.1764 H         1 <0>         0.1010
     59 H25        12.3515    1.6248    6.0565 H         1 <0>         0.1007
     60 H26        14.4635    0.4205    5.5687 H         1 <0>         0.1011
     61 H27        15.0714    1.8432    4.6886 H         1 <0>         0.1010
     62 H28        14.8892    3.2001    6.7560 H         1 <0>         0.1399
     63 H29        14.2812    1.7774    7.6362 H         1 <0>         0.1400
     64 H30        16.3334    0.6720    7.1331 H         1 <0>         0.4336
     65 H31        16.7420    3.3466    8.2727 H         1 <0>         0.1442
     66 H32        16.1340    1.9240    9.1528 H         1 <0>         0.1444
     67 H33        18.2460    0.7197    8.6650 H         1 <0>         0.1065
     68 H34        18.8539    2.1424    7.7849 H         1 <0>         0.1043
     69 H35        18.6717    3.4993    9.8523 H         1 <0>         0.1318
     70 H36        18.0638    2.0766   10.7325 H         1 <0>         0.1344
     71 H37        19.8189    0.1209   11.3004 H         1 <0>         0.2266
     72 H38        22.4438    0.0895   11.2964 H         1 <0>         0.2297
     73 H39        21.2440    3.5311    9.2043 H         1 <0>         0.2626
     74 H40        10.5267    1.4790    4.4268 H         1 <0>         0.4292
     75 H41        16.8962    1.9890    6.3184 H         1 <0>         0.4330
     76 H42        23.1667    2.1666   10.0282 H         1 <0>         0.4720
@<TRIPOS>BOND
     1    1    6 ar
     2    1    2 ar
     3    1   35 1
     4    2    3 ar
     5    2   36 1
     6    3    4 ar
     7    3   37 1
     8    4   10 ar
     9    4    5 ar
    10    5    6 ar
    11    5    7 ar
    12    6   38 1
    13    7    8 ar
    14    7   39 1
    15    8    9 ar
    16    8   40 1
    17    9   10 ar
    18    9   41 1
    19   10   11 1
    20   11   12 1
    21   11   42 1
    22   11   43 1
    23   12   13 2
    24   12   14 am
    25   14   19 1
    26   14   15 1
    27   15   16 1
    28   15   44 1
    29   15   45 1
    30   16   17 1
    31   16   46 1
    32   16   47 1
    33   17   18 1
    34   17   20 1
    35   17   48 1
    36   18   19 1
    37   18   49 1
    38   18   50 1
    39   19   51 1
    40   19   52 1
    41   20   21 1
    42   20   53 1
    43   20   54 1
    44   21   22 1
    45   21   55 1
    46   21   74 1
    47   22   23 1
    48   22   56 1
    49   22   57 1
    50   23   24 1
    51   23   58 1
    52   23   59 1
    53   24   25 1
    54   24   60 1
    55   24   61 1
    56   25   26 1
    57   25   62 1
    58   25   63 1
    59   26   27 1
    60   26   64 1
    61   26   75 1
    62   27   28 1
    63   27   65 1
    64   27   66 1
    65   28   29 1
    66   28   67 1
    67   28   68 1
    68   29   30 1
    69   29   69 1
    70   29   70 1
    71   30   34 1
    72   30   31 1
    73   31   32 2
    74   31   71 1
    75   32   33 1
    76   32   72 1
    77   33   34 2
    78   33   76 1
    79   34   73 1
@<TRIPOS>MOLECULE
CHEMBL23652
   75    78     0     0     0
SMALL
USER_CHARGES

@<TRIPOS>ATOM
      1 C1         -0.0164    1.3567    0.0095 C.ar      1 <0>        -0.1175
      2 C2          1.1685    2.0906    0.0021 C.ar      1 <0>        -0.1068
      3 C3          2.3785    1.4679   -0.0132 C.ar      1 <0>        -0.1157
      4 C4          2.4378    0.0637   -0.0214 C.ar      1 <0>        -0.0326
      5 C5          1.2328   -0.6827   -0.0134 C.ar      1 <0>        -0.0523
      6 C6          0.0021   -0.0041    0.0020 C.ar      1 <0>        -0.0989
      7 C7          1.2920   -2.0865   -0.0210 C.ar      1 <0>        -0.0941
      8 C8          2.5022   -2.7094   -0.0359 C.ar      1 <0>        -0.1194
      9 C9          3.6867   -1.9757   -0.0433 C.ar      1 <0>        -0.0974
     10 C10         3.6681   -0.6146   -0.0367 C.ar      1 <0>        -0.0701
     11 C11         4.9603    0.1606   -0.0459 C.3       1 <0>        -0.0992
     12 C12         5.3414    0.5186    1.3675 C.2       1 <0>         0.5189
     13 O1          4.6334    0.1777    2.2913 O.2       1 <0>        -0.5086
     14 N1          6.4691    1.2175    1.6049 N.am      1 <0>        -0.6249
     15 C13         7.3338    1.6427    0.4958 C.3       1 <0>         0.1035
     16 C14         8.7613    1.1593    0.7702 C.3       1 <0>        -0.1286
     17 C15         9.2100    1.6607    2.1448 C.3       1 <0>        -0.1151
     18 C16         8.2897    1.0865    3.2244 C.3       1 <0>        -0.1435
     19 C17         6.8539    1.5739    2.9774 C.3       1 <0>         0.1109
     20 C18        10.6479    1.2089    2.4077 C.3       1 <0>        -0.0058
     21 N2         11.1201    1.7892    3.6719 N.4       1 <0>        -0.5116
     22 C19        12.5007    1.3554    3.9244 C.3       1 <0>        -0.0096
     23 C20        12.9925    1.9599    5.2411 C.3       1 <0>        -0.1496
     24 C21        14.4304    1.5081    5.5040 C.3       1 <0>        -0.1496
     25 C22        14.9222    2.1125    6.8207 C.3       1 <0>        -0.0095
     26 N3         16.3028    1.6787    7.0732 N.4       1 <0>        -0.5098
     27 C23        16.7750    2.2591    8.3374 C.3       1 <0>        -0.0054
     28 C24        18.2129    1.8073    8.6003 C.3       1 <0>        -0.1712
     29 C25        18.7047    2.4117    9.9170 C.3       1 <0>         0.1136
     30 N4         20.0816    1.9791   10.1688 N.pl3     1 <0>        -0.4740
     31 C26        20.4686    0.8558   10.8485 C.2       1 <0>        -0.0629
     32 C27        21.8152    0.8426   10.8446 C.2       1 <0>        -0.0125
     33 N5         22.2389    1.9282   10.1807 N.2       1 <0>        -0.4820
     34 C28        21.2059    2.6111    9.7686 C.2       1 <0>         0.1835
     35 H1         -0.9634    1.8756    0.0259 H         1 <0>         0.1268
     36 H2          1.1258    3.1698    0.0084 H         1 <0>         0.1233
     37 H3          3.2883    2.0497   -0.0195 H         1 <0>         0.1164
     38 H4         -0.9241   -0.5595    0.0082 H         1 <0>         0.1309
     39 H5          0.3820   -2.6682   -0.0147 H         1 <0>         0.1309
     40 H6          2.5450   -3.7886   -0.0417 H         1 <0>         0.1264
     41 H7          4.6338   -2.4947   -0.0548 H         1 <0>         0.1185
     42 H8          5.7467   -0.4491   -0.4909 H         1 <0>         0.1047
     43 H9          4.8331    1.0722   -0.6299 H         1 <0>         0.1065
     44 H10         6.9734    1.2073   -0.4362 H         1 <0>         0.1005
     45 H11         7.3242    2.7301    0.4212 H         1 <0>         0.0778
     46 H12         8.7858    0.0697    0.7546 H         1 <0>         0.0823
     47 H13         9.4312    1.5498    0.0041 H         1 <0>         0.0912
     48 H14         9.1617    2.7494    2.1678 H         1 <0>         0.0999
     49 H15         8.3186   -0.0024    3.1857 H         1 <0>         0.0851
     50 H16         8.6239    1.4251    4.2051 H         1 <0>         0.0665
     51 H17         6.8060    2.6558    3.1010 H         1 <0>         0.0724
     52 H18         6.1767    1.0931    3.6833 H         1 <0>         0.1034
     53 H19        10.6810    0.1213    2.4725 H         1 <0>         0.1351
     54 H20        11.2889    1.5440    1.5923 H         1 <0>         0.1376
     55 H21        11.0895    2.7960    3.6120 H         1 <0>         0.4305
     56 H22        12.5338    0.2679    3.9891 H         1 <0>         0.1361
     57 H23        13.1417    1.6906    3.1090 H         1 <0>         0.1369
     58 H24        12.9594    3.0474    5.1764 H         1 <0>         0.1004
     59 H25        12.3515    1.6248    6.0565 H         1 <0>         0.0998
     60 H26        14.4635    0.4205    5.5687 H         1 <0>         0.1002
     61 H27        15.0714    1.8432    4.6886 H         1 <0>         0.1005
     62 H28        14.8892    3.2001    6.7560 H         1 <0>         0.1374
     63 H29        14.2812    1.7774    7.6362 H         1 <0>         0.1371
     64 H30        16.3334    0.6720    7.1331 H         1 <0>         0.4319
     65 H31        16.7420    3.3466    8.2727 H         1 <0>         0.1391
     66 H32        16.1340    1.9240    9.1528 H         1 <0>         0.1384
     67 H33        18.2460    0.7197    8.6650 H         1 <0>         0.0972
     68 H34        18.8539    2.1424    7.7849 H         1 <0>         0.0979
     69 H35        18.6717    3.4993    9.8523 H         1 <0>         0.1047
     70 H36        18.0638    2.0766   10.7325 H         1 <0>         0.1023
     71 H37        19.8189    0.1214   11.3011 H         1 <0>         0.1777
     72 H38        22.4438    0.0897   11.2968 H         1 <0>         0.1760
     73 H39        21.2440    3.5306    9.2035 H         1 <0>         0.2068
     74 H40        10.5267    1.4790    4.4268 H         1 <0>         0.4287
     75 H41        16.8962    1.9890    6.3184 H         1 <0>         0.4320
@<TRIPOS>BOND
     1    1    6 ar
     2    1    2 ar
     3    1   35 1
     4    2    3 ar
     5    2   36 1
     6    3    4 ar
     7    3   37 1
     8    4   10 ar
     9    4    5 ar
    10    5    6 ar
    11    5    7 ar
    12    6   38 1
    13    7    8 ar
    14    7   39 1
    15    8    9 ar
    16    8   40 1
    17    9   10 ar
    18    9   41 1
    19   10   11 1
    20   11   12 1
    21   11   42 1
    22   11   43 1
    23   12   13 2
    24   12   14 am
    25   14   19 1
    26   14   15 1
    27   15   16 1
    28   15   44 1
    29   15   45 1
    30   16   17 1
    31   16   46 1
    32   16   47 1
    33   17   18 1
    34   17   20 1
    35   17   48 1
    36   18   19 1
    37   18   49 1
    38   18   50 1
    39   19   51 1
    40   19   52 1
    41   20   21 1
    42   20   53 1
    43   20   54 1
    44   21   22 1
    45   21   55 1
    46   21   74 1
    47   22   23 1
    48   22   56 1
    49   22   57 1
    50   23   24 1
    51   23   58 1
    52   23   59 1
    53   24   25 1
    54   24   60 1
    55   24   61 1
    56   25   26 1
    57   25   62 1
    58   25   63 1
    59   26   27 1
    60   26   64 1
    61   26   75 1
    62   27   28 1
    63   27   65 1
    64   27   66 1
    65   28   29 1
    66   28   67 1
    67   28   68 1
    68   29   30 1
    69   29   69 1
    70   29   70 1
    71   30   34 1
    72   30   31 1
    73   31   32 2
    74   31   71 1
    75   32   33 1
    76   32   72 1
    77   33   34 2
    78   34   73 1
@<TRIPOS>MOLECULE
CHEMBL28472
   30    31     0     0     0
SMALL
USER_CHARGES

@<TRIPOS>ATOM
      1 C1         -0.0187    1.5280    0.0104 C.3       1 <0>        -0.1053
      2 C2          1.4204    2.0579   -0.0005 C.3       1 <0>        -0.0925
      3 C3          2.3366    1.3683   -0.9672 C.2       1 <0>        -0.1485
      4 C4          2.8718    0.1998   -0.6147 C.2       1 <0>        -0.0185
      5 C5          2.3973   -0.4229    0.6388 C.2       1 <0>        -0.2344
      6 C6          1.0746   -0.5071    0.9303 C.2       1 <0>         0.0873
      7 O1          0.9351   -1.0940    2.1174 O.3       1 <0>        -0.0534
      8 N1          2.2131   -1.4320    2.6301 N.am      1 <0>        -0.5833
      9 C7          3.1421   -1.0238    1.7316 C.2       1 <0>         0.5388
     10 O2          4.3531   -1.1374    1.8220 O.2       1 <0>        -0.4783
     11 C8          0.0021   -0.0041    0.0020 C.3       1 <0>        -0.0439
     12 C9          3.9240   -0.4639   -1.4652 C.3       1 <0>        -0.0500
     13 C10         5.3125   -0.0933   -0.9403 C.3       1 <0>         0.0197
     14 H1          5.3820   -0.3507    0.1166 H         1 <0>         0.0954
     15 C11         6.3606   -0.8527   -1.7122 C.2       1 <0>         0.4648
     16 O3          6.8393   -0.3721   -2.7253 O.co2     1 <0>        -0.7058
     17 O4          6.7299   -1.9478   -1.3236 O.co2     1 <0>        -0.6987
     18 N2          5.5304    1.3497   -1.1082 N.3       1 <0>        -0.8253
     19 H2         -0.5287    1.8796    0.9073 H         1 <0>         0.0698
     20 H3         -0.5457    1.8892   -0.8727 H         1 <0>         0.0807
     21 H4          1.3948    3.1193   -0.2473 H         1 <0>         0.0668
     22 H5          1.8343    1.9514    1.0023 H         1 <0>         0.0609
     23 H6          2.5581    1.8093   -1.9278 H         1 <0>         0.1200
     24 H7         -0.9666   -0.3811    0.3300 H         1 <0>         0.0863
     25 H8          0.2033   -0.3579   -1.0091 H         1 <0>         0.1079
     26 H9          3.7964   -1.5456   -1.4229 H         1 <0>         0.0631
     27 H10         3.8236   -0.1264   -2.4968 H         1 <0>         0.0655
     28 H11         6.4142    1.6307   -0.7107 H         1 <0>         0.3269
     29 H12         5.4710    1.6137   -2.0803 H         1 <0>         0.3312
     30 H13         2.3910   -1.8760    3.4740 H         1 <0>         0.4529
@<TRIPOS>BOND
     1    1   11 1
     2    1    2 1
     3    1   19 1
     4    1   20 1
     5    2    3 1
     6    2   21 1
     7    2   22 1
     8    3    4 2
     9    3   23 1
    10    4    5 1
    11    4   12 1
    12    5    9 1
    13    5    6 2
    14    6    7 1
    15    6   11 1
    16    7    8 1
    17    8    9 am
    18    8   30 1
    19    9   10 2
    20   11   24 1
    21   11   25 1
    22   12   13 1
    23   12   26 1
    24   12   27 1
    25   13   14 1
    26   13   15 1
    27   13   18 1
    28   15   16 2
    29   15   17 1
    30   18   28 1
    31   18   29 1
@<TRIPOS>MOLECULE
CHEMBL553466
   36    38     0     0     0
SMALL
USER_CHARGES

@<TRIPOS>ATOM
      1 C1          0.3401    1.1772   -0.2072 C.ar      1 <0>        -0.1193
      2 C2          1.3321    2.1312   -0.1048 C.ar      1 <0>        -0.0005
      3 C3          2.6628    1.7515   -0.0604 C.ar      1 <0>        -0.0183
      4 C4          3.0070    0.4163   -0.1181 C.ar      1 <0>        -0.0553
      5 C5          2.0165   -0.5537   -0.2218 C.ar      1 <0>         0.1209
      6 C6          0.6746   -0.1709   -0.2661 C.ar      1 <0>         0.1742
      7 N1         -0.3317   -1.1272   -0.3694 N.am      1 <0>        -0.6339
      8 C7         -0.0163   -2.4370   -0.4271 C.2       1 <0>         0.5114
      9 C8          1.4173   -2.8461   -0.3792 C.2       1 <0>         0.5114
     10 N2          2.3716   -1.8985   -0.2800 N.am      1 <0>        -0.6322
     11 O1          1.7221   -4.0207   -0.4299 O.2       1 <0>        -0.4505
     12 O2         -0.8907   -3.2752   -0.5168 O.2       1 <0>        -0.4469
     13 N3          3.7202    2.7816    0.0490 N.pl3     1 <0>         0.0372
     14 O3          4.8844    2.4620   -0.0156 O.2       1 <0>        -0.1776
     15 O4          3.4196    3.9425    0.2029 O.3       1 <0>        -0.1127
     16 C9          0.9656    3.5916   -0.0416 C.3       1 <0>         0.0853
     17 N4          1.1304    4.0787    1.3344 N.3       1 <0>        -0.5209
     18 C10         0.0801    3.5427    2.2124 C.3       1 <0>         0.0115
     19 C11         0.3238    4.0261    3.6445 C.3       1 <0>         0.0649
     20 O5          0.3645    5.4556    3.6593 O.3       1 <0>        -0.3849
     21 C12         1.3766    6.0115    2.8155 C.3       1 <0>         0.0625
     22 C13         1.1436    5.5482    1.3750 C.3       1 <0>         0.0256
     23 H1         -0.6968    1.4779   -0.2370 H         1 <0>         0.1607
     24 H2          4.0464    0.1249   -0.0831 H         1 <0>         0.1695
     25 H3          1.6157    4.1585   -0.7081 H         1 <0>         0.1117
     26 H4         -0.0718    3.7195   -0.3506 H         1 <0>         0.0571
     27 H5         -0.8938    3.8932    1.8707 H         1 <0>         0.0472
     28 H6          0.1052    2.4533    2.1867 H         1 <0>         0.0807
     29 H7         -0.4840    3.6783    4.2884 H         1 <0>         0.0977
     30 H8          1.2735    3.6311    4.0053 H         1 <0>         0.0582
     31 H9          1.3303    7.0996    2.8599 H         1 <0>         0.1009
     32 H10         2.3569    5.6743    3.1522 H         1 <0>         0.0627
     33 H11         1.9449    5.9228    0.7381 H         1 <0>         0.0997
     34 H12         0.1867    5.9308    1.0200 H         1 <0>         0.0437
     35 H13         3.3067   -2.1543   -0.2485 H         1 <0>         0.4294
     36 H14        -1.2611   -0.8511   -0.3995 H         1 <0>         0.4290
@<TRIPOS>BOND
     1    1    6 ar
     2    1    2 ar
     3    1   23 1
     4    2    3 ar
     5    2   16 1
     6    3    4 ar
     7    3   13 1
     8    4    5 ar
     9    4   24 1
    10    5   10 1
    11    5    6 ar
    12    6    7 1
    13    7    8 am
    14    7   36 1
    15    8    9 1
    16    8   12 2
    17    9   10 am
    18    9   11 2
    19   10   35 1
    20   13   14 2
    21   13   15 1
    22   16   17 1
    23   16   25 1
    24   16   26 1
    25   17   22 1
    26   17   18 1
    27   18   19 1
    28   18   27 1
    29   18   28 1
    30   19   20 1
    31   19   29 1
    32   19   30 1
    33   20   21 1
    34   21   22 1
    35   21   31 1
    36   21   32 1
    37   22   33 1
    38   22   34 1
@<TRIPOS>MOLECULE
CHEMBL125440
   21    22     0     0     0
SMALL
USER_CHARGES

@<TRIPOS>ATOM
      1 C1         -0.0179    1.4661    0.0101 C.3       1 <0>        -0.0024
      2 C2          1.4342    1.9621   -0.0011 C.3       1 <0>         0.0182
      3 H1          1.5966    2.8197    0.6518 H         1 <0>         0.1300
      4 C3          2.2770    0.7151    0.3976 C.3       1 <0>        -0.0923
      5 H2          2.5575    0.6937    1.4507 H         1 <0>         0.1387
      6 C4          1.3872   -0.4694   -0.0232 C.3       1 <0>        -0.0420
      7 H3          1.6340   -0.7784   -1.0389 H         1 <0>         0.1264
      8 N1          0.0021   -0.0041    0.0020 N.4       1 <0>        -0.4833
      9 C5          1.5817   -1.6227    0.9272 C.2       1 <0>         0.4930
     10 O1          0.6885   -1.9368    1.6954 O.co2     1 <0>        -0.6886
     11 O2          2.6321   -2.2416    0.9279 O.co2     1 <0>        -0.5790
     12 C6          3.4641    0.8176   -0.5420 C.2       1 <0>         0.0867
     13 N2          3.1657    1.6451   -1.4864 N.2       1 <0>        -0.2591
     14 O3          1.8563    2.1968   -1.3575 O.3       1 <0>        -0.2315
     15 C7          4.7406    0.0958   -0.3998 C.2       1 <0>         0.5398
     16 O4          5.6302    0.2587   -1.2232 O.co2     1 <0>        -0.6601
     17 O5          4.9107   -0.6662    0.5416 O.co2     1 <0>        -0.6142
     18 H4         -0.5220    1.8226    0.9083 H         1 <0>         0.1357
     19 H5         -0.5390    1.8322   -0.8745 H         1 <0>         0.1352
     20 H6         -0.4424   -0.3519    0.8384 H         1 <0>         0.4293
     21 H7         -0.4930   -0.3435   -0.8090 H         1 <0>         0.4196
@<TRIPOS>BOND
     1    1    8 1
     2    1    2 1
     3    1   18 1
     4    1   19 1
     5    2    3 1
     6    2   14 1
     7    2    4 1
     8    4    5 1
     9    4    6 1
    10    4   12 1
    11    6    7 1
    12    6    8 1
    13    6    9 1
    14    8   20 1
    15    8   21 1
    16    9   10 2
    17    9   11 1
    18   12   13 2
    19   12   15 1
    20   13   14 1
    21   15   16 2
    22   15   17 1
@<TRIPOS>MOLECULE
CHEMBL125440
   20    21     0     0     0
SMALL
USER_CHARGES

@<TRIPOS>ATOM
      1 C1         -0.0179    1.4661    0.0101 C.3       1 <0>         0.0581
      2 C2          1.4342    1.9621   -0.0011 C.3       1 <0>         0.0142
      3 H1          1.5966    2.8197    0.6518 H         1 <0>         0.0857
      4 C3          2.2770    0.7151    0.3976 C.3       1 <0>        -0.1030
      5 H2          2.5575    0.6937    1.4507 H         1 <0>         0.1035
      6 C4          1.3872   -0.4694   -0.0232 C.3       1 <0>         0.0295
      7 H3          1.6340   -0.7784   -1.0389 H         1 <0>         0.0711
      8 N1          0.0021   -0.0041    0.0020 N.3       1 <0>        -0.6665
      9 C5          1.5817   -1.6227    0.9272 C.2       1 <0>         0.4897
     10 O1          0.6885   -1.9368    1.6954 O.co2     1 <0>        -0.7144
     11 O2          2.6321   -2.2416    0.9279 O.co2     1 <0>        -0.6443
     12 C6          3.4641    0.8176   -0.5420 C.2       1 <0>         0.0837
     13 N2          3.1657    1.6451   -1.4864 N.2       1 <0>        -0.2908
     14 O3          1.8563    2.1968   -1.3575 O.3       1 <0>        -0.2327
     15 C7          4.7406    0.0958   -0.3998 C.2       1 <0>         0.5463
     16 O4          5.6302    0.2587   -1.2232 O.co2     1 <0>        -0.6835
     17 O5          4.9107   -0.6662    0.5416 O.co2     1 <0>        -0.6211
     18 H4         -0.5220    1.8226    0.9083 H         1 <0>         0.0506
     19 H5         -0.5390    1.8322   -0.8745 H         1 <0>         0.0747
     20 H6         -0.4775   -0.3766    0.8078 H         1 <0>         0.3493
@<TRIPOS>BOND
     1    1    8 1
     2    1    2 1
     3    1   18 1
     4    1   19 1
     5    2    3 1
     6    2   14 1
     7    2    4 1
     8    4    5 1
     9    4    6 1
    10    4   12 1
    11    6    7 1
    12    6    8 1
    13    6    9 1
    14    8   20 1
    15    9   10 2
    16    9   11 1
    17   12   13 2
    18   12   15 1
    19   13   14 1
    20   15   16 2
    21   15   17 1
@<TRIPOS>MOLECULE
CHEMBL1214202
   50    52     0     0     0
SMALL
USER_CHARGES

@<TRIPOS>ATOM
      1 C1         -0.0187    1.5258    0.0104 C.3       1 <0>        -0.1403
      2 C2          0.0021   -0.0041    0.0020 C.3       1 <0>        -0.5945
      3 C3          0.7182   -0.4975   -1.2568 C.3       1 <0>        -0.1427
      4 S1          0.8794   -0.6050    1.4716 S.o2      1 <0>         2.6102
      5 O1          0.7544   -2.0168    1.5731 O.2       1 <0>        -0.9553
      6 O2          2.1525    0.0185    1.5707 O.2       1 <0>        -0.9568
      7 N1          0.0171   -0.0111    2.7546 N.pl3     1 <0>        -1.1074
      8 C4         -1.3580   -0.4613    2.9842 C.3       1 <0>         0.1449
      9 C5         -2.3702    0.5996    2.5025 C.3       1 <0>        -0.0967
     10 C6         -3.5189    0.5271    3.4862 C.ar      1 <0>        -0.1152
     11 C7         -4.8172    1.0020    3.3836 C.ar      1 <0>        -0.1021
     12 C8         -5.7094    0.8218    4.4191 C.ar      1 <0>        -0.1112
     13 C9         -5.3040    0.1579    5.5752 C.ar      1 <0>        -0.0108
     14 C10        -3.9999   -0.3183    5.6752 C.ar      1 <0>        -0.1004
     15 C11        -3.1114   -0.1326    4.6318 C.ar      1 <0>        -0.0984
     16 C12        -1.6619   -0.5476    4.4949 C.3       1 <0>        -0.0795
     17 C13        -6.2582   -0.0409    6.6943 C.ar      1 <0>        -0.0274
     18 C14        -5.8493   -0.7002    7.8524 C.ar      1 <0>        -0.2097
     19 C15        -6.7378   -0.8845    8.8927 C.ar      1 <0>        -0.0709
     20 C16        -8.0344   -0.4169    8.7906 C.ar      1 <0>        -0.2489
     21 C17        -8.4508    0.2415    7.6399 C.ar      1 <0>         0.2808
     22 C18        -7.5621    0.4356    6.5925 C.ar      1 <0>        -0.1660
     23 N2         -9.7622    0.7123    7.5400 N.2       1 <0>        -1.1008
     24 S2        -10.8209    0.4860    8.7930 S.o2      1 <0>         2.5254
     25 O3        -10.9715   -0.9237    8.8904 O.2       1 <0>        -1.0312
     26 O4        -10.2721    1.2321    9.8707 O.2       1 <0>        -1.0313
     27 C19       -12.3722    1.2430    8.2352 C.3       1 <0>        -0.6370
     28 H1          1.0039    1.9031    0.0027 H         1 <0>         0.0735
     29 H2         -0.5459    1.8868   -0.8726 H         1 <0>         0.0772
     30 H3         -0.5289    1.8773    0.9072 H         1 <0>         0.0728
     31 H4         -1.0205   -0.3814    0.0098 H         1 <0>         0.1363
     32 H5          1.7408   -0.1202   -1.2645 H         1 <0>         0.0715
     33 H6          0.7330   -1.5874   -1.2628 H         1 <0>         0.0716
     34 H7          0.1910   -0.1364   -2.1398 H         1 <0>         0.0823
     35 H8          0.4224    0.6348    3.3541 H         1 <0>         0.4199
     36 H9         -1.5363   -1.4202    2.4977 H         1 <0>         0.1078
     37 H10        -1.9173    1.5909    2.5224 H         1 <0>         0.0875
     38 H11        -2.7176    0.3618    1.4971 H         1 <0>         0.0762
     39 H12        -5.1314    1.5166    2.4875 H         1 <0>         0.1170
     40 H13        -6.7196    1.1943    4.3345 H         1 <0>         0.1320
     41 H14        -3.6811   -0.8331    6.5694 H         1 <0>         0.1244
     42 H15        -1.5258   -1.5690    4.8502 H         1 <0>         0.0837
     43 H16        -1.0189    0.1356    5.0497 H         1 <0>         0.0870
     44 H17        -4.8370   -1.0673    7.9357 H         1 <0>         0.1041
     45 H18        -6.4189   -1.3959    9.7889 H         1 <0>         0.1027
     46 H19        -8.7258   -0.5640    9.6072 H         1 <0>         0.1013
     47 H20        -7.8821    0.9512    5.6991 H         1 <0>         0.1142
     48 H21       -12.7118    0.7473    7.3257 H         1 <0>         0.1147
     49 H22       -13.1290    1.1352    9.0121 H         1 <0>         0.1006
     50 H23       -12.2077    2.3012    8.0324 H         1 <0>         0.1147
@<TRIPOS>BOND
     1    1    2 1
     2    1   28 1
     3    1   29 1
     4    1   30 1
     5    2    3 1
     6    2    4 1
     7    2   31 1
     8    3   32 1
     9    3   33 1
    10    3   34 1
    11    4    5 2
    12    4    6 2
    13    4    7 1
    14    7    8 1
    15    7   35 1
    16    8   16 1
    17    8    9 1
    18    8   36 1
    19    9   10 1
    20    9   37 1
    21    9   38 1
    22   10   15 ar
    23   10   11 ar
    24   11   12 ar
    25   11   39 1
    26   12   13 ar
    27   12   40 1
    28   13   14 ar
    29   13   17 1
    30   14   15 ar
    31   14   41 1
    32   15   16 1
    33   16   42 1
    34   16   43 1
    35   17   22 ar
    36   17   18 ar
    37   18   19 ar
    38   18   44 1
    39   19   20 ar
    40   19   45 1
    41   20   21 ar
    42   20   46 1
    43   21   22 ar
    44   21   23 1
    45   22   47 1
    46   23   24 1
    47   24   25 2
    48   24   26 2
    49   24   27 1
    50   27   48 1
    51   27   49 1
    52   27   50 1
@<TRIPOS>MOLECULE
CHEMBL1214202
   50    52     0     0     0
SMALL
USER_CHARGES

@<TRIPOS>ATOM
      1 C1         -0.0187    1.5258    0.0104 C.3       1 <0>        -0.1392
      2 C2          0.0021   -0.0041    0.0020 C.3       1 <0>        -0.5962
      3 C3          0.7182   -0.4975   -1.2568 C.3       1 <0>        -0.1430
      4 S1          0.8794   -0.6050    1.4716 S.o2      1 <0>         2.6099
      5 O1          0.7544   -2.0168    1.5731 O.2       1 <0>        -0.9521
      6 O2          2.1525    0.0185    1.5707 O.2       1 <0>        -0.9569
      7 N1          0.0171   -0.0111    2.7546 N.pl3     1 <0>        -1.1079
      8 C4         -1.3580   -0.4613    2.9842 C.3       1 <0>         0.1516
      9 C5         -1.4113   -1.5040    4.1208 C.3       1 <0>        -0.0909
     10 C6         -2.7149   -1.2368    4.8431 C.ar      1 <0>        -0.1114
     11 C7         -3.4328   -2.0351    5.7200 C.ar      1 <0>        -0.1028
     12 C8         -4.6138   -1.5818    6.2681 C.ar      1 <0>        -0.1095
     13 C9         -5.0889   -0.3140    5.9382 C.ar      1 <0>        -0.0137
     14 C10        -4.3661    0.4852    5.0570 C.ar      1 <0>        -0.1000
     15 C11        -3.1821    0.0225    4.5124 C.ar      1 <0>        -0.1034
     16 C12        -2.2242    0.6860    3.5459 C.3       1 <0>        -0.0821
     17 C13        -6.3596    0.1816    6.5232 C.ar      1 <0>        -0.0262
     18 C14        -6.8363    1.4478    6.1877 C.ar      1 <0>        -0.2106
     19 C15        -8.0183    1.9077    6.7325 C.ar      1 <0>        -0.0710
     20 C16        -8.7331    1.1160    7.6115 C.ar      1 <0>        -0.2496
     21 C17        -8.2655   -0.1477    7.9517 C.ar      1 <0>         0.2812
     22 C18        -7.0813   -0.6191    7.4038 C.ar      1 <0>        -0.1664
     23 N2         -8.9902   -0.9450    8.8407 N.2       1 <0>        -1.1004
     24 S2        -10.4070   -0.3844    9.4895 S.o2      1 <0>         2.5255
     25 O3        -10.0278    0.7399   10.2714 O.2       1 <0>        -1.0314
     26 O4        -11.2797   -0.2329    8.3784 O.2       1 <0>        -1.0314
     27 C19       -10.9902   -1.7246   10.5639 C.3       1 <0>        -0.6371
     28 H1          1.0039    1.9031    0.0027 H         1 <0>         0.0738
     29 H2         -0.5459    1.8868   -0.8726 H         1 <0>         0.0769
     30 H3         -0.5289    1.8773    0.9072 H         1 <0>         0.0725
     31 H4         -1.0205   -0.3814    0.0098 H         1 <0>         0.1353
     32 H5          1.7408   -0.1202   -1.2645 H         1 <0>         0.0717
     33 H6          0.7330   -1.5874   -1.2628 H         1 <0>         0.0720
     34 H7          0.1910   -0.1364   -2.1398 H         1 <0>         0.0822
     35 H8          0.4224    0.6348    3.3541 H         1 <0>         0.4200
     36 H9         -1.7913   -0.8607    2.0672 H         1 <0>         0.0982
     37 H10        -1.4072   -2.5131    3.7087 H         1 <0>         0.0829
     38 H11        -0.5686   -1.3680    4.7986 H         1 <0>         0.0861
     39 H12        -3.0646   -3.0177    5.9757 H         1 <0>         0.1182
     40 H13        -5.1691   -2.2073    6.9513 H         1 <0>         0.1320
     41 H14        -4.7306    1.4683    4.7982 H         1 <0>         0.1234
     42 H15        -1.5998    1.4100    4.0693 H         1 <0>         0.0874
     43 H16        -2.7754    1.1725    2.7412 H         1 <0>         0.0807
     44 H17        -6.2804    2.0695    5.5014 H         1 <0>         0.1035
     45 H18        -8.3856    2.8892    6.4714 H         1 <0>         0.1023
     46 H19        -9.6572    1.4805    8.0353 H         1 <0>         0.1012
     47 H20        -6.7185   -1.6027    7.6630 H         1 <0>         0.1144
     48 H21       -10.2448   -1.9233   11.3340 H         1 <0>         0.1148
     49 H22       -11.9288   -1.4311   11.0339 H         1 <0>         0.1005
     50 H23       -11.1472   -2.6246    9.9694 H         1 <0>         0.1148
@<TRIPOS>BOND
     1    1    2 1
     2    1   28 1
     3    1   29 1
     4    1   30 1
     5    2    3 1
     6    2    4 1
     7    2   31 1
     8    3   32 1
     9    3   33 1
    10    3   34 1
    11    4    5 2
    12    4    6 2
    13    4    7 1
    14    7    8 1
    15    7   35 1
    16    8   16 1
    17    8    9 1
    18    8   36 1
    19    9   10 1
    20    9   37 1
    21    9   38 1
    22   10   15 ar
    23   10   11 ar
    24   11   12 ar
    25   11   39 1
    26   12   13 ar
    27   12   40 1
    28   13   14 ar
    29   13   17 1
    30   14   15 ar
    31   14   41 1
    32   15   16 1
    33   16   42 1
    34   16   43 1
    35   17   22 ar
    36   17   18 ar
    37   18   19 ar
    38   18   44 1
    39   19   20 ar
    40   19   45 1
    41   20   21 ar
    42   20   46 1
    43   21   22 ar
    44   21   23 1
    45   22   47 1
    46   23   24 1
    47   24   25 2
    48   24   26 2
    49   24   27 1
    50   27   48 1
    51   27   49 1
    52   27   50 1
@<TRIPOS>MOLECULE
CHEMBL27653
   25    27     0     0     0
SMALL
USER_CHARGES

@<TRIPOS>ATOM
      1 C1          0.4293    2.1706    1.4634 C.2       1 <0>        -0.0293
      2 C2          1.4032    2.0448    0.5426 C.2       1 <0>        -0.0143
      3 N1          2.4247    1.3489    1.1376 N.pl3     1 <0>        -0.4161
      4 C3          2.0314    1.0744    2.4094 C.2       1 <0>         0.2093
      5 N2          0.8383    1.5704    2.5913 N.2       1 <0>        -0.4727
      6 C4          3.6401    0.9895    0.5474 C.ar      1 <0>         0.4261
      7 C5          4.1390   -0.2995    0.7375 C.ar      1 <0>        -0.1497
      8 C6          5.3386   -0.6545    0.1545 C.ar      1 <0>        -0.0190
      9 C7          6.0132    0.2985   -0.6103 C.ar      1 <0>         0.0156
     10 C8          5.4569    1.5793   -0.7630 C.ar      1 <0>         0.4264
     11 N3          4.2906    1.8726   -0.1826 N.ar      1 <0>        -0.4691
     12 N4          6.0918    2.5162   -1.4985 N.2       1 <0>        -0.5841
     13 C9          7.2317    2.2580   -2.0825 C.2       1 <0>         0.4450
     14 C10         7.8485    0.9254   -1.9457 C.2       1 <0>         0.4794
     15 N5          7.2166   -0.0165   -1.2112 N.am      1 <0>        -0.6260
     16 O1          8.9103    0.6775   -2.4869 O.2       1 <0>        -0.4980
     17 O2          7.8478    3.2157   -2.8151 O.3       1 <0>        -0.5743
     18 N6          3.3888   -1.2773    1.5574 N.pl3     1 <0>         0.0461
     19 O3          3.9829   -2.0357    2.2878 O.2       1 <0>        -0.1651
     20 O4          2.1820   -1.3175    1.4967 O.3       1 <0>        -0.1508
     21 H1         -0.5164    2.6723    1.3202 H         1 <0>         0.1766
     22 H2          1.3841    2.4198   -0.4700 H         1 <0>         0.1804
     23 H3          2.6094    0.5358    3.1458 H         1 <0>         0.1944
     24 H4          5.7457   -1.6460    0.2872 H         1 <0>         0.1598
     25 H5          7.6025   -0.9003   -1.1070 H         1 <0>         0.4092
@<TRIPOS>BOND
     1    1    5 1
     2    1    2 2
     3    1   21 1
     4    2    3 1
     5    2   22 1
     6    3    4 1
     7    3    6 1
     8    4    5 2
     9    4   23 1
    10    6   11 ar
    11    6    7 ar
    12    7    8 ar
    13    7   18 1
    14    8    9 ar
    15    8   24 1
    16    9   15 1
    17    9   10 ar
    18   10   11 ar
    19   10   12 1
    20   12   13 2
    21   13   14 1
    22   13   17 1
    23   14   15 am
    24   14   16 2
    25   15   25 1
    26   18   19 2
    27   18   20 1
@<TRIPOS>MOLECULE
CHEMBL27653
   25    27     0     0     0
SMALL
USER_CHARGES

@<TRIPOS>ATOM
      1 C1          0.4290    2.1697    1.4655 C.2       1 <0>        -0.0290
      2 C2          1.4028    2.0447    0.5446 C.2       1 <0>        -0.0219
      3 N1          2.4245    1.3479    1.1389 N.pl3     1 <0>        -0.4066
      4 C3          2.0310    1.0724    2.4109 C.2       1 <0>         0.2074
      5 N2          0.8381    1.5684    2.5930 N.2       1 <0>        -0.4741
      6 C4          3.6381    0.9898    0.5494 C.ar      1 <0>         0.3442
      7 C5          4.1362   -0.2987    0.7375 C.ar      1 <0>        -0.0723
      8 C6          5.3248   -0.6547    0.1620 C.ar      1 <0>        -0.0274
      9 C7          6.0096    0.3023   -0.6073 C.ar      1 <0>         0.1548
     10 C8          5.4498    1.5845   -0.7562 C.ar      1 <0>         0.3013
     11 N3          4.2907    1.8767   -0.1810 N.ar      1 <0>        -0.4718
     12 N4          6.1065    2.5371   -1.5072 N.am      1 <0>        -0.6148
     13 C9          7.2826    2.2196   -2.0897 C.2       1 <0>         0.4864
     14 C10         7.8326    0.8661   -1.9080 C.2       1 <0>         0.4262
     15 N5          7.1827   -0.0120   -1.1897 N.2       1 <0>        -0.5910
     16 O1          9.0121    0.5304   -2.4852 O.3       1 <0>        -0.5918
     17 O2          7.8810    3.0429   -2.7577 O.2       1 <0>        -0.4948
     18 N6          3.3832   -1.2758    1.5557 N.pl3     1 <0>         0.0343
     19 O3          3.9749   -2.0352    2.2870 O.2       1 <0>        -0.1457
     20 O4          2.1764   -1.3143    1.4927 O.3       1 <0>        -0.1433
     21 H1         -0.5166    2.6716    1.3229 H         1 <0>         0.1750
     22 H2          1.3834    2.4203   -0.4678 H         1 <0>         0.1763
     23 H3          2.6088    0.5331    3.1469 H         1 <0>         0.1942
     24 H4          5.7282   -1.6476    0.2958 H         1 <0>         0.1725
     25 H5          5.7281    3.4236   -1.6157 H         1 <0>         0.4116
@<TRIPOS>BOND
     1    1    5 1
     2    1    2 2
     3    1   21 1
     4    2    3 1
     5    2   22 1
     6    3    4 1
     7    3    6 1
     8    4    5 2
     9    4   23 1
    10    6   11 ar
    11    6    7 ar
    12    7    8 ar
    13    7   18 1
    14    8    9 ar
    15    8   24 1
    16    9   15 1
    17    9   10 ar
    18   10   11 ar
    19   10   12 1
    20   12   13 am
    21   12   25 1
    22   13   14 1
    23   13   17 2
    24   14   15 2
    25   14   16 1
    26   18   19 2
    27   18   20 1
@<TRIPOS>MOLECULE
CHEMBL222418
   20    21     0     0     0
SMALL
USER_CHARGES

@<TRIPOS>ATOM
      1 C1         -0.0167    1.3839    0.0097 C.ar      1 <0>        -0.0630
      2 C2          1.1833    2.0914    0.0020 C.ar      1 <0>        -0.0261
      3 C3          2.4047    1.4046   -0.0138 C.ar      1 <0>         0.0012
      4 C4          2.4314    0.0433   -0.0218 C.ar      1 <0>        -0.0577
      5 C5          1.2325   -0.6870   -0.0138 C.ar      1 <0>         0.2039
      6 C6          0.0021   -0.0041    0.0020 C.ar      1 <0>         0.0789
      7 N1         -1.1854   -0.7142    0.0095 N.am      1 <0>        -0.6292
      8 H1         -2.0367   -0.2493    0.0198 H         1 <0>         0.4071
      9 C7         -1.1422   -2.0644    0.0019 C.2       1 <0>         0.4776
     10 O1         -2.1711   -2.7145    0.0078 O.2       1 <0>        -0.5067
     11 C8          0.1686   -2.7399   -0.0142 C.2       1 <0>         0.4272
     12 O2          0.2320   -4.0926   -0.0221 O.3       1 <0>        -0.5987
     13 N2          1.2689   -2.0352   -0.0223 N.2       1 <0>        -0.5994
     14 N3          3.6750    2.1645   -0.0223 N.pl3     1 <0>         0.0371
     15 O3          4.7311    1.5764   -0.0360 O.2       1 <0>        -0.1514
     16 O4          3.6562    3.3734   -0.0157 O.3       1 <0>        -0.1712
     17 C9          1.1687    3.5233    0.0098 C.1       1 <0>         0.2573
     18 N4          1.1571    4.6592    0.0160 N.1       1 <0>        -0.4011
     19 H2         -0.9580    1.9132    0.0260 H         1 <0>         0.1477
     20 H3          3.3781   -0.4763   -0.0347 H         1 <0>         0.1666
@<TRIPOS>BOND
     1    1    6 ar
     2    1    2 ar
     3    1   19 1
     4    2    3 ar
     5    2   17 1
     6    3    4 ar
     7    3   14 1
     8    4    5 ar
     9    4   20 1
    10    5   13 1
    11    5    6 ar
    12    6    7 1
    13    7    8 1
    14    7    9 am
    15    9   10 2
    16    9   11 1
    17   11   12 1
    18   11   13 2
    19   14   15 2
    20   14   16 1
    21   17   18 3
@<TRIPOS>MOLECULE
CHEMBL222418
   20    21     0     0     0
SMALL
USER_CHARGES

@<TRIPOS>ATOM
      1 C1         -0.0169    1.3949    0.0097 C.ar      1 <0>        -0.0692
      2 C2          1.1825    2.0985    0.0020 C.ar      1 <0>         0.0404
      3 C3          2.4026    1.4090   -0.0138 C.ar      1 <0>        -0.0632
      4 C4          2.4267    0.0450   -0.0218 C.ar      1 <0>        -0.0517
      5 C5          1.2370   -0.6797   -0.0139 C.ar      1 <0>         0.0642
      6 C6          0.0021   -0.0041    0.0020 C.ar      1 <0>         0.2182
      7 N1         -1.1632   -0.6959    0.0090 N.2       1 <0>        -0.5980
      8 C7         -1.1681   -2.0022    0.0020 C.2       1 <0>         0.4289
      9 O1         -2.3442   -2.6747    0.0087 O.3       1 <0>        -0.5934
     10 C8          0.1047   -2.7452   -0.0136 C.2       1 <0>         0.4778
     11 O2          0.1069   -3.9623   -0.0202 O.2       1 <0>        -0.5068
     12 N2          1.2684   -2.0601   -0.0216 N.am      1 <0>        -0.6286
     13 H1          2.1158   -2.5320   -0.0331 H         1 <0>         0.4076
     14 N3          3.6744    2.1663   -0.0224 N.pl3     1 <0>         0.0499
     15 O3          4.7294    1.5760   -0.0360 O.2       1 <0>        -0.1745
     16 O4          3.6582    3.3752   -0.0157 O.3       1 <0>        -0.1799
     17 C9          1.1710    3.5304    0.0098 C.1       1 <0>         0.2528
     18 N4          1.1619    4.6664    0.0160 N.1       1 <0>        -0.3889
     19 H2         -0.9576    1.9253    0.0260 H         1 <0>         0.1606
     20 H3          3.3728   -0.4756   -0.0347 H         1 <0>         0.1539
@<TRIPOS>BOND
     1    1    6 ar
     2    1    2 ar
     3    1   19 1
     4    2    3 ar
     5    2   17 1
     6    3    4 ar
     7    3   14 1
     8    4    5 ar
     9    4   20 1
    10    5   12 1
    11    5    6 ar
    12    6    7 1
    13    7    8 2
    14    8    9 1
    15    8   10 1
    16   10   11 2
    17   10   12 am
    18   12   13 1
    19   14   15 2
    20   14   16 1
    21   17   18 3
@<TRIPOS>MOLECULE
CHEMBL155029
   45    49     0     0     0
SMALL
USER_CHARGES

@<TRIPOS>ATOM
      1 C1         -0.9648    0.7125    3.0089 C.ar      1 <0>        -0.1088
      2 C2         -0.7824   -0.5515    2.4800 C.ar      1 <0>        -0.1217
      3 C3          0.2868   -1.3252    2.8913 C.ar      1 <0>        -0.0990
      4 C4          1.1738   -0.8346    3.8312 C.ar      1 <0>        -0.1150
      5 C5          0.9919    0.4298    4.3594 C.ar      1 <0>        -0.0989
      6 C6         -0.0781    1.2029    3.9492 C.ar      1 <0>        -0.1217
      7 C7          2.3389   -1.6783    4.2804 C.3       1 <0>         0.1798
      8 N1          3.4923   -1.4184    3.4153 N.am      1 <0>        -0.7347
      9 C8          4.6550   -2.0652    3.6300 C.2       1 <0>         0.7038
     10 O1          4.7467   -2.8645    4.5417 O.2       1 <0>        -0.5673
     11 N2          5.7161   -1.8261    2.8342 N.am      1 <0>        -0.6850
     12 C9          6.9529   -2.4116    3.1231 C.ar      1 <0>         0.1919
     13 C10         7.8103   -2.7711    2.0895 C.ar      1 <0>        -0.1427
     14 C11         9.0299   -3.3482    2.3678 C.ar      1 <0>        -0.0600
     15 C12         9.4085   -3.5734    3.6949 C.ar      1 <0>        -0.0844
     16 C13         8.5427   -3.2095    4.7255 C.ar      1 <0>        -0.0490
     17 C14         7.3278   -2.6291    4.4447 C.ar      1 <0>        -0.0974
     18 C15         9.2306   -3.5771    6.0160 C.3       1 <0>        -0.0205
     19 C16        10.5589   -4.1794    5.6138 C.2       1 <0>        -0.0055
     20 C17        10.6375   -4.1661    4.2734 C.2       1 <0>         0.1570
     21 N3         11.7661   -4.6668    3.6233 N.am      1 <0>        -0.6290
     22 C18        12.7977   -5.1728    4.3273 C.2       1 <0>         0.6008
     23 C19        12.7122   -5.1877    5.7943 C.2       1 <0>         0.1318
     24 N4         11.5857   -4.6850    6.3889 N.pl3     1 <0>        -0.3468
     25 C20        11.7533   -4.8132    7.7310 C.2       1 <0>        -0.0275
     26 C21        12.9681   -5.3848    7.9280 C.2       1 <0>        -0.0052
     27 N5         13.5296   -5.6027    6.7403 N.2       1 <0>        -0.4101
     28 O2         13.7818   -5.6098    3.7587 O.2       1 <0>        -0.4855
     29 H1         -1.7976    1.3187    2.6842 H         1 <0>         0.1247
     30 H2         -1.4754   -0.9348    1.7456 H         1 <0>         0.1255
     31 H3          0.4290   -2.3130    2.4786 H         1 <0>         0.1246
     32 H4          1.6847    0.8130    5.0940 H         1 <0>         0.1247
     33 H5         -0.2205    2.1906    4.3622 H         1 <0>         0.1255
     34 H6          2.5933   -1.4278    5.3102 H         1 <0>         0.0793
     35 H7          2.0690   -2.7326    4.2190 H         1 <0>         0.0790
     36 H8          3.4191   -0.7808    2.6880 H         1 <0>         0.4004
     37 H9          5.6220   -1.2479    2.0611 H         1 <0>         0.4112
     38 H10         7.5190   -2.5976    1.0641 H         1 <0>         0.1367
     39 H11         9.6927   -3.6266    1.5619 H         1 <0>         0.1330
     40 H12         6.6646   -2.3463    5.2488 H         1 <0>         0.1469
     41 H13         9.3897   -2.6871    6.6248 H         1 <0>         0.1150
     42 H14         8.6364   -4.3080    6.5645 H         1 <0>         0.1164
     43 H15        11.0520   -4.5162    8.4966 H         1 <0>         0.1919
     44 H16        13.4054   -5.6235    8.8862 H         1 <0>         0.1914
     45 H17        11.8084   -4.6507    2.6544 H         1 <0>         0.4245
@<TRIPOS>BOND
     1    1    6 ar
     2    1    2 ar
     3    1   29 1
     4    2    3 ar
     5    2   30 1
     6    3    4 ar
     7    3   31 1
     8    4    5 ar
     9    4    7 1
    10    5    6 ar
    11    5   32 1
    12    6   33 1
    13    7    8 1
    14    7   34 1
    15    7   35 1
    16    8    9 am
    17    8   36 1
    18    9   10 2
    19    9   11 am
    20   11   12 1
    21   11   37 1
    22   12   17 ar
    23   12   13 ar
    24   13   14 ar
    25   13   38 1
    26   14   15 ar
    27   14   39 1
    28   15   20 1
    29   15   16 ar
    30   16   17 ar
    31   16   18 1
    32   17   40 1
    33   18   19 1
    34   18   41 1
    35   18   42 1
    36   19   24 1
    37   19   20 2
    38   20   21 1
    39   21   22 am
    40   21   45 1
    41   22   23 1
    42   22   28 2
    43   23   27 2
    44   23   24 1
    45   24   25 1
    46   25   26 2
    47   25   43 1
    48   26   27 1
    49   26   44 1
@<TRIPOS>MOLECULE
CHEMBL155029
   44    48     0     0     0
SMALL
USER_CHARGES

@<TRIPOS>ATOM
      1 C1         -0.0895    2.3390    3.0715 C.ar      1 <0>        -0.1125
      2 C2         -0.0771    1.2245    3.8892 C.ar      1 <0>        -0.1229
      3 C3          1.1252    0.7057    4.3323 C.ar      1 <0>        -0.0994
      4 C4          2.3150    1.3013    3.9574 C.ar      1 <0>        -0.1092
      5 C5          2.3026    2.4152    3.1390 C.ar      1 <0>        -0.0991
      6 C6          1.1003    2.9348    2.6970 C.ar      1 <0>        -0.1226
      7 C7          3.6256    0.7363    4.4413 C.3       1 <0>         0.1798
      8 N1          4.1088   -0.2637    3.4859 N.am      1 <0>        -0.7403
      9 C8          5.2716   -0.9061    3.7131 C.2       1 <0>         0.7025
     10 O1          5.9197   -0.6557    4.7109 O.2       1 <0>        -0.5686
     11 N2          5.7161   -1.8261    2.8342 N.am      1 <0>        -0.6813
     12 C9          6.9677   -2.4226    3.0191 C.ar      1 <0>         0.1564
     13 C10         7.7531   -2.7466    1.9191 C.ar      1 <0>        -0.1483
     14 C11         8.9867   -3.3344    2.0963 C.ar      1 <0>        -0.0604
     15 C12         9.4518   -3.6065    3.3849 C.ar      1 <0>        -0.0387
     16 C13         8.6592   -3.2790    4.4824 C.ar      1 <0>        -0.0671
     17 C14         7.4296   -2.6867    4.3036 C.ar      1 <0>        -0.1005
     18 C15         9.4247   -3.6907    5.7154 C.3       1 <0>         0.0029
     19 C16        10.7220   -4.2808    5.2160 C.2       1 <0>        -0.1578
     20 C17        10.7178   -4.2223    3.8587 C.2       1 <0>         0.2003
     21 N3         11.7722   -4.6891    3.1550 N.2       1 <0>        -0.6036
     22 C18        12.8207   -5.2071    3.7505 C.2       1 <0>         0.4915
     23 C19        12.8622   -5.2855    5.1639 C.2       1 <0>         0.1405
     24 N4         11.7924   -4.8129    5.8811 N.pl3     1 <0>        -0.3008
     25 C20        12.0781   -5.0025    7.1983 C.2       1 <0>        -0.1065
     26 C21        13.3010   -5.5815    7.2618 C.2       1 <0>        -0.0146
     27 N5         13.7591   -5.7437    6.0200 N.2       1 <0>        -0.4598
     28 O2         13.8618   -5.6667    3.0141 O.3       1 <0>        -0.6497
     29 H1         -1.0286    2.7416    2.7217 H         1 <0>         0.1226
     30 H2         -1.0067    0.7592    4.1821 H         1 <0>         0.1239
     31 H3          1.1349   -0.1646    4.9717 H         1 <0>         0.1249
     32 H4          3.2322    2.8807    2.8464 H         1 <0>         0.1251
     33 H5          1.0906    3.8054    2.0579 H         1 <0>         0.1240
     34 H6          4.3575    1.5394    4.5280 H         1 <0>         0.0772
     35 H7          3.4822    0.2687    5.4154 H         1 <0>         0.0771
     36 H8          3.5918   -0.4635    2.6899 H         1 <0>         0.3977
     37 H9          5.1681   -2.0746    2.0734 H         1 <0>         0.4057
     38 H10         7.3951   -2.5373    0.9219 H         1 <0>         0.1261
     39 H11         9.5938   -3.5850    1.2389 H         1 <0>         0.1348
     40 H12         6.8226   -2.4315    5.1597 H         1 <0>         0.1408
     41 H13         9.6236   -2.8215    6.3423 H         1 <0>         0.0871
     42 H14         8.8624   -4.4382    6.2751 H         1 <0>         0.0859
     43 H15        11.4481   -4.7404    8.0355 H         1 <0>         0.1681
     44 H16        13.8189   -5.8633    8.1667 H         1 <0>         0.1689
@<TRIPOS>BOND
     1    1    6 ar
     2    1    2 ar
     3    1   29 1
     4    2    3 ar
     5    2   30 1
     6    3    4 ar
     7    3   31 1
     8    4    5 ar
     9    4    7 1
    10    5    6 ar
    11    5   32 1
    12    6   33 1
    13    7    8 1
    14    7   34 1
    15    7   35 1
    16    8    9 am
    17    8   36 1
    18    9   10 2
    19    9   11 am
    20   11   12 1
    21   11   37 1
    22   12   17 ar
    23   12   13 ar
    24   13   14 ar
    25   13   38 1
    26   14   15 ar
    27   14   39 1
    28   15   20 1
    29   15   16 ar
    30   16   17 ar
    31   16   18 1
    32   17   40 1
    33   18   19 1
    34   18   41 1
    35   18   42 1
    36   19   24 1
    37   19   20 2
    38   20   21 1
    39   21   22 2
    40   22   23 1
    41   22   28 1
    42   23   27 2
    43   23   24 1
    44   24   25 1
    45   25   26 2
    46   25   43 1
    47   26   27 1
    48   26   44 1
@<TRIPOS>MOLECULE
CHEMBL222519
   31    33     0     0     0
SMALL
USER_CHARGES

@<TRIPOS>ATOM
      1 C1          0.2332    1.3841    0.6570 C.ar      1 <0>        -0.1163
      2 C2          1.3450    2.1030    0.3352 C.ar      1 <0>        -0.0461
      3 C3          2.5286    1.4337   -0.0104 C.ar      1 <0>        -0.0508
      4 C4          2.5507    0.0178   -0.0197 C.ar      1 <0>         0.0703
      5 C5          1.3858   -0.6903    0.3181 C.ar      1 <0>        -0.6623
      6 C6          0.2539   -0.0082    0.6481 C.ar      1 <0>         0.0100
      7 S1          1.3881   -2.4523    0.3133 S.o2      1 <0>         2.6604
      8 O1          1.2671   -2.8548   -1.0441 O.2       1 <0>        -0.9037
      9 O2          2.4738   -2.8593    1.1348 O.2       1 <0>        -0.9426
     10 N1          0.0047   -2.9457    1.0783 N.pl3     1 <0>        -1.2465
     11 C7          3.7370   -0.6553   -0.3670 C.ar      1 <0>        -0.0313
     12 C8          4.8514    0.0498   -0.6900 C.ar      1 <0>        -0.0208
     13 C9          4.8498    1.4521   -0.6862 C.ar      1 <0>         0.1138
     14 C10         3.6989    2.1491   -0.3497 C.ar      1 <0>         0.1787
     15 N2          3.6832    3.5358   -0.3424 N.am      1 <0>        -0.6274
     16 H1          2.8706    4.0090   -0.1045 H         1 <0>         0.4261
     17 C11         4.7946    4.2283   -0.6646 C.2       1 <0>         0.5118
     18 O3          4.7862    5.4433   -0.6593 O.2       1 <0>        -0.4441
     19 C12         6.0334    3.4831   -1.0268 C.2       1 <0>         0.5112
     20 O4          7.0481    4.0831   -1.3210 O.2       1 <0>        -0.4495
     21 N3          6.0144    2.1351   -1.0235 N.am      1 <0>        -0.6258
     22 H2          6.8149    1.6397   -1.2576 H         1 <0>         0.4304
     23 N4          3.7698   -2.1354   -0.3796 N.pl3     1 <0>        -0.0336
     24 O5          4.3500   -2.7346    0.4957 O.2       1 <0>        -0.0101
     25 O6          3.2166   -2.7448   -1.2651 O.3       1 <0>        -0.1547
     26 H3         -0.6756    1.9014    0.9270 H         1 <0>         0.1537
     27 H4          1.3152    3.1825    0.3457 H         1 <0>         0.1466
     28 H5         -0.6405   -0.5552    0.9075 H         1 <0>         0.1465
     29 H6         -0.6187   -2.2884    1.4249 H         1 <0>         0.4109
     30 H7         -0.1821   -3.8921    1.1798 H         1 <0>         0.4276
     31 H8          5.7553   -0.4788   -0.9543 H         1 <0>         0.1677
@<TRIPOS>BOND
     1    1    6 ar
     2    1    2 ar
     3    1   26 1
     4    2    3 ar
     5    2   27 1
     6    3   14 ar
     7    3    4 ar
     8    4    5 ar
     9    4   11 ar
    10    5    6 ar
    11    5    7 1
    12    6   28 1
    13    7    8 2
    14    7    9 2
    15    7   10 1
    16   10   29 1
    17   10   30 1
    18   11   12 ar
    19   11   23 1
    20   12   13 ar
    21   12   31 1
    22   13   21 1
    23   13   14 ar
    24   14   15 1
    25   15   16 1
    26   15   17 am
    27   17   18 2
    28   17   19 1
    29   19   20 2
    30   19   21 am
    31   21   22 1
    32   23   24 2
    33   23   25 1
@<TRIPOS>MOLECULE
CHEMBL222519
   30    32     0     0     0
SMALL
USER_CHARGES

@<TRIPOS>ATOM
      1 C1         -0.6276    0.4370   -1.7736 C.ar      1 <0>        -0.1731
      2 C2          0.3567    1.2003   -2.3318 C.ar      1 <0>         0.0069
      3 C3          1.6968    0.8795   -2.0978 C.ar      1 <0>        -0.0630
      4 C4          2.0190   -0.2327   -1.2850 C.ar      1 <0>         0.0918
      5 C5          0.9824   -0.9962   -0.7260 C.ar      1 <0>        -0.6997
      6 C6         -0.3146   -0.6572   -0.9739 C.ar      1 <0>         0.0068
      7 S1          1.3554   -2.3868    0.2896 S.o2      1 <0>         2.6622
      8 O1          1.7041   -3.4487   -0.5879 O.2       1 <0>        -0.9158
      9 O2          2.2299   -1.9224    1.3088 O.2       1 <0>        -0.9452
     10 N1         -0.0506   -2.8358    1.0407 N.pl3     1 <0>        -1.2459
     11 C7          3.3708   -0.5559   -1.0503 C.ar      1 <0>        -0.1204
     12 C8          4.3691    0.1831   -1.5919 C.ar      1 <0>         0.0054
     13 C9          4.1065    1.2943   -2.4040 C.ar      1 <0>        -0.0110
     14 C10         2.7853    1.6709   -2.6771 C.ar      1 <0>         0.2503
     15 N2          2.5158    2.7321   -3.4521 N.2       1 <0>        -0.5968
     16 C11         3.4796    3.4477   -3.9760 C.2       1 <0>         0.4326
     17 O3          3.1851    4.5165   -4.7560 O.3       1 <0>        -0.5869
     18 C12         4.8815    3.0897   -3.7160 C.2       1 <0>         0.4736
     19 O4          5.7864    3.7475   -4.1978 O.2       1 <0>        -0.5174
     20 N3          5.1522    2.0207   -2.9364 N.am      1 <0>        -0.6182
     21 H1          6.0702    1.7673   -2.7519 H         1 <0>         0.4056
     22 N4          3.7049   -1.7200   -0.1990 N.pl3     1 <0>        -0.0190
     23 O5          4.1212   -1.5487    0.9230 O.2       1 <0>        -0.0412
     24 O6          3.5614   -2.8420   -0.6258 O.3       1 <0>        -0.1772
     25 H2         -1.6628    0.6885   -1.9514 H         1 <0>         0.1355
     26 H3          0.1015    2.0474   -2.9513 H         1 <0>         0.1531
     27 H4         -1.1104   -1.2463   -0.5426 H         1 <0>         0.1338
     28 H5         -0.4520   -3.6967    0.8440 H         1 <0>         0.4197
     29 H6         -0.4727   -2.2379    1.6772 H         1 <0>         0.4165
     30 H7          5.3943   -0.0914   -1.3921 H         1 <0>         0.1369
@<TRIPOS>BOND
     1    1    6 ar
     2    1    2 ar
     3    1   25 1
     4    2    3 ar
     5    2   26 1
     6    3   14 ar
     7    3    4 ar
     8    4    5 ar
     9    4   11 ar
    10    5    6 ar
    11    5    7 1
    12    6   27 1
    13    7    8 2
    14    7    9 2
    15    7   10 1
    16   10   28 1
    17   10   29 1
    18   11   12 ar
    19   11   22 1
    20   12   13 ar
    21   12   30 1
    22   13   20 1
    23   13   14 ar
    24   14   15 1
    25   15   16 2
    26   16   17 1
    27   16   18 1
    28   18   19 2
    29   18   20 am
    30   20   21 1
    31   22   23 2
    32   22   24 1
@<TRIPOS>MOLECULE
CHEMBL222519
   30    32     0     0     0
SMALL
USER_CHARGES

@<TRIPOS>ATOM
      1 C1          0.2456    1.3834    0.6714 C.ar      1 <0>        -0.1313
      2 C2          1.3577    2.1012    0.3447 C.ar      1 <0>        -0.0563
      3 C3          2.5384    1.4313   -0.0062 C.ar      1 <0>        -0.0329
      4 C4          2.5597    0.0160   -0.0166 C.ar      1 <0>         0.0376
      5 C5          1.3970   -0.6903    0.3261 C.ar      1 <0>        -0.6495
      6 C6          0.2655   -0.0079    0.6614 C.ar      1 <0>        -0.0272
      7 S1          1.3984   -2.4523    0.3206 S.o2      1 <0>         2.6599
      8 O1          1.2733   -2.8543   -1.0366 O.2       1 <0>        -0.9123
      9 O2          2.4863   -2.8602    1.1387 O.2       1 <0>        -0.9464
     10 N1          0.0171   -2.9454    1.0895 N.pl3     1 <0>        -1.2511
     11 C7          3.7448   -0.6631   -0.3704 C.ar      1 <0>        -0.0537
     12 C8          4.8595    0.0289   -0.6994 C.ar      1 <0>         0.0031
     13 C9          4.8669    1.4424   -0.6970 C.ar      1 <0>         0.1698
     14 C10         3.7083    2.1457   -0.3510 C.ar      1 <0>         0.0654
     15 N2          3.7054    3.5214   -0.3466 N.am      1 <0>        -0.6172
     16 H1          2.9024    4.0100   -0.1071 H         1 <0>         0.4012
     17 C11         4.8349    4.1831   -0.6796 C.2       1 <0>         0.4746
     18 O3          4.8602    5.4008   -0.6836 O.2       1 <0>        -0.5142
     19 C12         6.0339    3.4096   -1.0369 C.2       1 <0>         0.4197
     20 O4          7.1791    4.0511   -1.3748 O.3       1 <0>        -0.6118
     21 N3          5.9939    2.1025   -1.0293 N.2       1 <0>        -0.5931
     22 N4          3.7686   -2.1433   -0.3812 N.pl3     1 <0>        -0.0254
     23 O5          4.3466   -2.7449    0.4938 O.2       1 <0>        -0.0281
     24 O6          3.2101   -2.7504   -1.2650 O.3       1 <0>        -0.1734
     25 H2         -0.6615    1.9014    0.9458 H         1 <0>         0.1381
     26 H3          1.3293    3.1807    0.3559 H         1 <0>         0.1345
     27 H4         -0.6278   -0.5549    0.9243 H         1 <0>         0.1324
     28 H5         -0.6050   -2.2879    1.4382 H         1 <0>         0.4093
     29 H6         -0.1699   -3.8918    1.1912 H         1 <0>         0.4219
     30 H7          5.7581   -0.5068   -0.9677 H         1 <0>         0.1561
@<TRIPOS>BOND
     1    1    6 ar
     2    1    2 ar
     3    1   25 1
     4    2    3 ar
     5    2   26 1
     6    3   14 ar
     7    3    4 ar
     8    4    5 ar
     9    4   11 ar
    10    5    6 ar
    11    5    7 1
    12    6   27 1
    13    7    8 2
    14    7    9 2
    15    7   10 1
    16   10   28 1
    17   10   29 1
    18   11   12 ar
    19   11   22 1
    20   12   13 ar
    21   12   30 1
    22   13   21 1
    23   13   14 ar
    24   14   15 1
    25   15   16 1
    26   15   17 am
    27   17   18 2
    28   17   19 1
    29   19   20 1
    30   19   21 2
    31   22   23 2
    32   22   24 1
@<TRIPOS>MOLECULE
CHEMBL90950
   78    81     0     0     0
SMALL
USER_CHARGES

@<TRIPOS>ATOM
      1 C1         -0.0164    1.3567    0.0095 C.ar      1 <0>        -0.1175
      2 C2          1.1685    2.0906    0.0021 C.ar      1 <0>        -0.1069
      3 C3          2.3785    1.4679   -0.0132 C.ar      1 <0>        -0.1156
      4 C4          2.4378    0.0637   -0.0214 C.ar      1 <0>        -0.0325
      5 C5          1.2328   -0.6827   -0.0134 C.ar      1 <0>        -0.0524
      6 C6          0.0021   -0.0041    0.0020 C.ar      1 <0>        -0.0990
      7 C7          1.2920   -2.0865   -0.0210 C.ar      1 <0>        -0.0942
      8 C8          2.5022   -2.7094   -0.0359 C.ar      1 <0>        -0.1194
      9 C9          3.6867   -1.9757   -0.0433 C.ar      1 <0>        -0.0974
     10 C10         3.6681   -0.6146   -0.0367 C.ar      1 <0>        -0.0700
     11 C11         4.9603    0.1606   -0.0459 C.3       1 <0>        -0.0992
     12 C12         5.3414    0.5186    1.3675 C.2       1 <0>         0.5189
     13 O1          4.6334    0.1777    2.2913 O.2       1 <0>        -0.5087
     14 N1          6.4691    1.2175    1.6049 N.am      1 <0>        -0.6248
     15 C13         7.3338    1.6427    0.4958 C.3       1 <0>         0.1036
     16 C14         8.7613    1.1593    0.7702 C.3       1 <0>        -0.1286
     17 C15         9.2100    1.6607    2.1448 C.3       1 <0>        -0.1151
     18 C16         8.2897    1.0865    3.2244 C.3       1 <0>        -0.1436
     19 C17         6.8539    1.5739    2.9774 C.3       1 <0>         0.1110
     20 C18        10.6479    1.2089    2.4077 C.3       1 <0>        -0.0057
     21 N2         11.1201    1.7892    3.6719 N.4       1 <0>        -0.5116
     22 C19        12.5007    1.3554    3.9244 C.3       1 <0>        -0.0096
     23 C20        12.9925    1.9599    5.2411 C.3       1 <0>        -0.1495
     24 C21        14.4304    1.5081    5.5040 C.3       1 <0>        -0.1494
     25 C22        14.9222    2.1125    6.8207 C.3       1 <0>        -0.0100
     26 N3         16.3028    1.6787    7.0732 N.4       1 <0>        -0.5111
     27 C23        16.7750    2.2591    8.3374 C.3       1 <0>        -0.0071
     28 C24        18.2129    1.8073    8.6003 C.3       1 <0>        -0.1145
     29 C25        18.2405    0.2927    8.8150 C.3       1 <0>        -0.1279
     30 C26        19.6784   -0.1591    9.0779 C.3       1 <0>        -0.1219
     31 C27        20.2131    0.5429   10.3278 C.3       1 <0>        -0.1283
     32 C28        20.1856    2.0575   10.1131 C.3       1 <0>        -0.1238
     33 C29        18.7476    2.5093    9.8502 C.3       1 <0>        -0.1121
     34 H1         -0.9634    1.8756    0.0259 H         1 <0>         0.1268
     35 H2          1.1258    3.1698    0.0084 H         1 <0>         0.1232
     36 H3          3.2883    2.0497   -0.0195 H         1 <0>         0.1165
     37 H4         -0.9241   -0.5595    0.0082 H         1 <0>         0.1309
     38 H5          0.3820   -2.6682   -0.0147 H         1 <0>         0.1308
     39 H6          2.5450   -3.7886   -0.0417 H         1 <0>         0.1263
     40 H7          4.6338   -2.4947   -0.0548 H         1 <0>         0.1185
     41 H8          5.7467   -0.4491   -0.4909 H         1 <0>         0.1047
     42 H9          4.8331    1.0722   -0.6299 H         1 <0>         0.1065
     43 H10         6.9734    1.2073   -0.4362 H         1 <0>         0.1004
     44 H11         7.3242    2.7301    0.4212 H         1 <0>         0.0778
     45 H12         8.7858    0.0697    0.7546 H         1 <0>         0.0822
     46 H13         9.4312    1.5498    0.0041 H         1 <0>         0.0912
     47 H14         9.1617    2.7494    2.1678 H         1 <0>         0.0999
     48 H15         8.3186   -0.0024    3.1857 H         1 <0>         0.0851
     49 H16         8.6239    1.4251    4.2051 H         1 <0>         0.0667
     50 H17         6.8060    2.6558    3.1010 H         1 <0>         0.0724
     51 H18         6.1767    1.0931    3.6833 H         1 <0>         0.1034
     52 H19        10.6810    0.1213    2.4725 H         1 <0>         0.1350
     53 H20        11.2889    1.5440    1.5923 H         1 <0>         0.1375
     54 H21        11.0895    2.7960    3.6120 H         1 <0>         0.4304
     55 H22        12.5338    0.2679    3.9891 H         1 <0>         0.1360
     56 H23        13.1417    1.6906    3.1090 H         1 <0>         0.1368
     57 H24        12.9594    3.0474    5.1764 H         1 <0>         0.1002
     58 H25        12.3515    1.6248    6.0565 H         1 <0>         0.0996
     59 H26        14.4635    0.4205    5.5687 H         1 <0>         0.0994
     60 H27        15.0714    1.8432    4.6886 H         1 <0>         0.1000
     61 H28        14.8892    3.2001    6.7560 H         1 <0>         0.1364
     62 H29        14.2812    1.7774    7.6362 H         1 <0>         0.1358
     63 H30        16.3334    0.6720    7.1331 H         1 <0>         0.4284
     64 H31        16.7420    3.3466    8.2727 H         1 <0>         0.1353
     65 H32        16.1340    1.9240    9.1528 H         1 <0>         0.1343
     66 H33        18.8368    2.0643    7.7443 H         1 <0>         0.0957
     67 H34        17.6166    0.0356    9.6710 H         1 <0>         0.0790
     68 H35        17.8596   -0.2075    7.9246 H         1 <0>         0.0535
     69 H36        19.6980   -1.2382    9.2309 H         1 <0>         0.0745
     70 H37        20.3023    0.0979    8.2219 H         1 <0>         0.0680
     71 H38        19.5892    0.2859   11.1838 H         1 <0>         0.0673
     72 H39        21.2375    0.2211   10.5151 H         1 <0>         0.0742
     73 H40        20.5665    2.5577   11.0035 H         1 <0>         0.0770
     74 H41        20.8095    2.3146    9.2571 H         1 <0>         0.0677
     75 H42        18.7280    3.5884    9.6973 H         1 <0>         0.0748
     76 H43        18.1237    2.2523   10.7062 H         1 <0>         0.0752
     77 H44        16.8962    1.9890    6.3184 H         1 <0>         0.4299
     78 H45        10.5267    1.4790    4.4268 H         1 <0>         0.4287
@<TRIPOS>BOND
     1    1    6 ar
     2    1    2 ar
     3    1   34 1
     4    2    3 ar
     5    2   35 1
     6    3    4 ar
     7    3   36 1
     8    4   10 ar
     9    4    5 ar
    10    5    6 ar
    11    5    7 ar
    12    6   37 1
    13    7    8 ar
    14    7   38 1
    15    8    9 ar
    16    8   39 1
    17    9   10 ar
    18    9   40 1
    19   10   11 1
    20   11   12 1
    21   11   41 1
    22   11   42 1
    23   12   13 2
    24   12   14 am
    25   14   19 1
    26   14   15 1
    27   15   16 1
    28   15   43 1
    29   15   44 1
    30   16   17 1
    31   16   45 1
    32   16   46 1
    33   17   18 1
    34   17   20 1
    35   17   47 1
    36   18   19 1
    37   18   48 1
    38   18   49 1
    39   19   50 1
    40   19   51 1
    41   20   21 1
    42   20   52 1
    43   20   53 1
    44   21   22 1
    45   21   54 1
    46   21   78 1
    47   22   23 1
    48   22   55 1
    49   22   56 1
    50   23   24 1
    51   23   57 1
    52   23   58 1
    53   24   25 1
    54   24   59 1
    55   24   60 1
    56   25   26 1
    57   25   61 1
    58   25   62 1
    59   26   27 1
    60   26   63 1
    61   26   77 1
    62   27   28 1
    63   27   64 1
    64   27   65 1
    65   28   33 1
    66   28   29 1
    67   28   66 1
    68   29   30 1
    69   29   67 1
    70   29   68 1
    71   30   31 1
    72   30   69 1
    73   30   70 1
    74   31   32 1
    75   31   71 1
    76   31   72 1
    77   32   33 1
    78   32   73 1
    79   32   74 1
    80   33   75 1
    81   33   76 1
@<TRIPOS>MOLECULE
CHEMBL14935
   40    42     0     0     0
SMALL
USER_CHARGES

@<TRIPOS>ATOM
      1 C1         -0.0187    1.5261    0.0104 C.3       1 <0>        -0.1238
      2 C2          1.4178    2.0522   -0.0005 C.3       1 <0>        -0.1090
      3 C3          2.1605    1.5450    1.2347 C.3       1 <0>        -0.0988
      4 H1          3.1856    1.9153    1.2176 H         1 <0>         0.0868
      5 C4          1.4628    2.0425    2.5014 C.3       1 <0>        -0.0134
      6 N1          2.1937    1.5679    3.6830 N.4       1 <0>        -0.4785
      7 C5          2.1694    0.1013    3.7306 C.3       1 <0>        -0.0519
      8 H2          1.1357   -0.2442    3.7341 H         1 <0>         0.1318
      9 C6          2.8921   -0.4673    2.5073 C.3       1 <0>        -0.1138
     10 C7          2.1737    0.0143    1.2417 C.3       1 <0>        -0.0947
     11 H3          2.7053   -0.3518    0.3633 H         1 <0>         0.0946
     12 C8          0.7355   -0.5089    1.2457 C.3       1 <0>        -0.1170
     13 C9          0.0021   -0.0041    0.0020 C.3       1 <0>        -0.0847
     14 H4          0.5174   -0.3558   -0.8918 H         1 <0>         0.0750
     15 C10        -1.4332   -0.5339    0.0057 C.3       1 <0>        -0.1042
     16 C11        -2.1288   -0.1316   -1.2963 C.3       1 <0>         0.0018
     17 C12        -3.5425   -0.6535   -1.2927 C.2       1 <0>         0.0495
     18 N2         -4.6155   -0.0251   -0.8348 N.2       1 <0>        -0.3915
     19 N3         -5.6282   -0.8032   -1.0123 N.2       1 <0>        -0.2004
     20 N4         -5.2266   -1.8948   -1.5645 N.2       1 <0>        -0.1995
     21 N5         -3.9528   -1.8267   -1.7520 N.2       1 <0>        -0.3897
     22 C13         2.8601   -0.3710    4.9839 C.2       1 <0>         0.4920
     23 O1          3.3287    0.4400    5.7643 O.co2     1 <0>        -0.6807
     24 O2          2.9504   -1.5643    5.2174 O.co2     1 <0>        -0.6381
     25 H5         -0.5282    1.8780    0.9075 H         1 <0>         0.0620
     26 H6         -0.5452    1.8876   -0.8729 H         1 <0>         0.0774
     27 H7          1.9259    1.7013   -0.8987 H         1 <0>         0.0781
     28 H8          1.4050    3.1421    0.0060 H         1 <0>         0.0687
     29 H9          1.4423    3.1323    2.5006 H         1 <0>         0.1224
     30 H10         0.4423    1.6603    2.5278 H         1 <0>         0.1295
     31 H11         3.1501    1.8859    3.6355 H         1 <0>         0.4200
     32 H12         3.9255   -0.1208    2.5008 H         1 <0>         0.0773
     33 H13         2.8717   -1.5564    2.5456 H         1 <0>         0.1095
     34 H14         0.7457   -1.5988    1.2436 H         1 <0>         0.0759
     35 H15         0.2223   -0.1530    2.1391 H         1 <0>         0.0596
     36 H16        -1.4192   -1.6206    0.0893 H         1 <0>         0.0633
     37 H17        -1.9744   -0.1114    0.8523 H         1 <0>         0.0593
     38 H18        -2.1429    0.9551   -1.3799 H         1 <0>         0.0649
     39 H19        -1.5876   -0.5541   -2.1429 H         1 <0>         0.0636
     40 H20         1.7601    1.9373    4.5159 H         1 <0>         0.4265
@<TRIPOS>BOND
     1    1   13 1
     2    1    2 1
     3    1   25 1
     4    1   26 1
     5    2    3 1
     6    2   27 1
     7    2   28 1
     8    3    4 1
     9    3   10 1
    10    3    5 1
    11    5    6 1
    12    5   29 1
    13    5   30 1
    14    6    7 1
    15    6   31 1
    16    6   40 1
    17    7    8 1
    18    7    9 1
    19    7   22 1
    20    9   10 1
    21    9   32 1
    22    9   33 1
    23   10   11 1
    24   10   12 1
    25   12   13 1
    26   12   34 1
    27   12   35 1
    28   13   14 1
    29   13   15 1
    30   15   16 1
    31   15   36 1
    32   15   37 1
    33   16   38 1
    34   16   39 1
    35   16   17 1
    36   17   18 2
    37   17   21 1
    38   18   19 1
    39   19   20 2
    40   20   21 1
    41   22   23 2
    42   22   24 1
@<TRIPOS>MOLECULE
CHEMBL19857
   26    29     0     0     0
SMALL
USER_CHARGES

@<TRIPOS>ATOM
      1 C1         -0.0168    1.3851    0.0097 C.ar      1 <0>        -0.1031
      2 C2          1.1635    2.0984    0.0022 C.ar      1 <0>        -0.1308
      3 C3          2.3824    1.4327   -0.0129 C.ar      1 <0>        -0.0617
      4 C4          2.4113    0.0476   -0.0206 C.ar      1 <0>        -0.1421
      5 C5          1.2115   -0.6788   -0.0131 C.ar      1 <0>         0.0018
      6 C6          0.0021   -0.0041    0.0020 C.ar      1 <0>        -0.0875
      7 C7          1.5420   -2.1334   -0.0235 C.2       1 <0>         0.2613
      8 C8          2.9212   -2.2750   -0.0371 C.2       1 <0>        -0.2441
      9 N1          3.4918   -3.5370   -0.0495 N.pl3     1 <0>        -0.3050
     10 C9          4.7636   -3.9727   -0.0630 C.2       1 <0>        -0.0326
     11 C10         4.7157   -5.3563   -0.0699 C.2       1 <0>        -0.0364
     12 N2          3.4239   -5.7226   -0.0605 N.2       1 <0>        -0.4018
     13 C11         2.6729   -4.6408   -0.0481 C.2       1 <0>         0.0844
     14 C12         1.2246   -4.4325   -0.0338 C.2       1 <0>         0.5302
     15 N3          0.7424   -3.2055   -0.0215 N.2       1 <0>        -0.6004
     16 O1          0.3854   -5.4926   -0.0319 O.3       1 <0>        -0.6109
     17 C13         5.8751   -6.2647   -0.0857 C.2       1 <0>         0.5680
     18 O2          7.0099   -5.8079   -0.0940 O.co2     1 <0>        -0.6989
     19 O3          5.7032   -7.4758   -0.0905 O.co2     1 <0>        -0.6795
     20 C14         3.5254   -0.9364   -0.0360 C.2       1 <0>         0.4582
     21 O4          4.7140   -0.6810   -0.0464 O.2       1 <0>        -0.4659
     22 H1         -0.9609    1.9093    0.0260 H         1 <0>         0.1276
     23 H2          1.1399    3.1781    0.0078 H         1 <0>         0.1268
     24 H3          3.3054    1.9934   -0.0191 H         1 <0>         0.1296
     25 H4         -0.9255   -0.5573    0.0075 H         1 <0>         0.1362
     26 H5          5.6530   -3.3601   -0.0676 H         1 <0>         0.1765
@<TRIPOS>BOND
     1    1    6 ar
     2    1    2 ar
     3    1   22 1
     4    2    3 ar
     5    2   23 1
     6    3    4 ar
     7    3   24 1
     8    4   20 1
     9    4    5 ar
    10    5    6 ar
    11    5    7 1
    12    6   25 1
    13    7   15 1
    14    7    8 2
    15    8    9 1
    16    8   20 1
    17    9   13 1
    18    9   10 1
    19   10   11 2
    20   10   26 1
    21   11   12 1
    22   11   17 1
    23   12   13 2
    24   13   14 1
    25   14   15 2
    26   14   16 1
    27   17   18 2
    28   17   19 1
    29   20   21 2
@<TRIPOS>MOLECULE
CHEMBL283350
   39    42     0     0     0
SMALL
USER_CHARGES

@<TRIPOS>ATOM
      1 C1         -0.0167    1.3782    0.0096 C.ar      1 <0>        -0.1166
      2 C2          1.1660    2.0958    0.0022 C.ar      1 <0>        -0.1278
      3 C3          2.3823    1.4369   -0.0129 C.ar      1 <0>        -0.0697
      4 C4          2.4160    0.0489   -0.0207 C.ar      1 <0>        -0.0835
      5 C5          1.2176   -0.6815   -0.0131 C.ar      1 <0>        -0.0079
      6 C6          0.0021   -0.0041    0.0020 C.ar      1 <0>        -0.0879
      7 C7          1.5461   -2.1292   -0.0235 C.2       1 <0>         0.2313
      8 C8          2.9213   -2.2744   -0.0371 C.2       1 <0>        -0.1119
      9 N1          3.4885   -3.5336   -0.0494 N.pl3     1 <0>        -0.3138
     10 C9          4.7627   -3.9713   -0.0637 C.2       1 <0>        -0.0337
     11 C10         4.7140   -5.3524   -0.0710 C.2       1 <0>        -0.0387
     12 N2          3.4199   -5.7188   -0.0611 N.2       1 <0>        -0.4099
     13 C11         2.6692   -4.6369   -0.0481 C.2       1 <0>         0.0972
     14 C12         1.2206   -4.4287   -0.0335 C.2       1 <0>         0.5207
     15 N3          0.7404   -3.2060   -0.0215 N.2       1 <0>        -0.6052
     16 O1          0.3798   -5.4907   -0.0317 O.3       1 <0>        -0.6392
     17 C13         5.8725   -6.2610   -0.0873 C.2       1 <0>         0.5684
     18 O2          7.0076   -5.8048   -0.0957 O.co2     1 <0>        -0.6980
     19 O3          5.7000   -7.4721   -0.0925 O.co2     1 <0>        -0.6843
     20 C14         3.5304   -0.9306   -0.0360 C.2       1 <0>         0.2382
     21 N4          4.8052   -0.6561   -0.0472 N.2       1 <0>        -0.3229
     22 O4          5.2392    0.6917   -0.0447 O.3       1 <0>        -0.2342
     23 C15         6.6599    0.8449   -0.0579 C.3       1 <0>         0.0715
     24 C16         7.0124    2.3337   -0.0540 C.3       1 <0>        -0.0854
     25 C17         8.5335    2.4977   -0.0681 C.3       1 <0>        -0.1792
     26 C18         8.8808    3.9641   -0.0642 C.2       1 <0>         0.4944
     27 O5          7.9938    4.8006   -0.0513 O.co2     1 <0>        -0.6992
     28 O6         10.0486    4.3141   -0.0739 O.co2     1 <0>        -0.7126
     29 H1         -0.9613    1.9015    0.0260 H         1 <0>         0.1218
     30 H2          1.1396    3.1754    0.0078 H         1 <0>         0.1239
     31 H3          3.3034    2.0009   -0.0190 H         1 <0>         0.1352
     32 H4         -0.9253   -0.5575    0.0082 H         1 <0>         0.1311
     33 H5          5.6526   -3.3594   -0.0688 H         1 <0>         0.1756
     34 H6          7.0849    0.3685    0.8255 H         1 <0>         0.0507
     35 H7          7.0674    0.3774   -0.9543 H         1 <0>         0.0507
     36 H8          6.5874    2.8101   -0.9374 H         1 <0>         0.0656
     37 H9          6.6049    2.8012    0.8424 H         1 <0>         0.0656
     38 H10         8.9586    2.0213    0.8154 H         1 <0>         0.0597
     39 H11         8.9411    2.0302   -0.9645 H         1 <0>         0.0597
@<TRIPOS>BOND
     1    1    6 ar
     2    1    2 ar
     3    1   29 1
     4    2    3 ar
     5    2   30 1
     6    3    4 ar
     7    3   31 1
     8    4   20 1
     9    4    5 ar
    10    5    6 ar
    11    5    7 1
    12    6   32 1
    13    7   15 1
    14    7    8 2
    15    8    9 1
    16    8   20 1
    17    9   13 1
    18    9   10 1
    19   10   11 2
    20   10   33 1
    21   11   12 1
    22   11   17 1
    23   12   13 2
    24   13   14 1
    25   14   15 2
    26   14   16 1
    27   17   18 2
    28   17   19 1
    29   20   21 2
    30   21   22 1
    31   22   23 1
    32   23   24 1
    33   23   34 1
    34   23   35 1
    35   24   25 1
    36   24   36 1
    37   24   37 1
    38   25   26 1
    39   25   38 1
    40   25   39 1
    41   26   27 2
    42   26   28 1
@<TRIPOS>MOLECULE
CHEMBL283350
   40    43     0     0     0
SMALL
USER_CHARGES

@<TRIPOS>ATOM
      1 C1         -0.0167    1.3781    0.0096 C.ar      1 <0>        -0.1044
      2 C2          1.1655    2.0968    0.0022 C.ar      1 <0>        -0.1069
      3 C3          2.3836    1.4392   -0.0135 C.ar      1 <0>        -0.0576
      4 C4          2.4184    0.0529   -0.0213 C.ar      1 <0>        -0.0745
      5 C5          1.2197   -0.6810   -0.0133 C.ar      1 <0>        -0.0419
      6 C6          0.0021   -0.0041    0.0020 C.ar      1 <0>        -0.0903
      7 C7          1.5521   -2.1231   -0.0239 C.2       1 <0>         0.1627
      8 C8          2.9019   -2.2740   -0.0378 C.2       1 <0>         0.0724
      9 N1          3.4799   -3.5418   -0.0506 N.pl3     1 <0>        -0.3593
     10 C9          4.7603   -3.9563   -0.0646 C.2       1 <0>         0.0236
     11 C10         4.7341   -5.3400   -0.0717 C.2       1 <0>        -0.0199
     12 N2          3.4469   -5.7248   -0.0619 N.2       1 <0>        -0.3623
     13 C11         2.6827   -4.6578   -0.0492 C.2       1 <0>         0.0922
     14 C12         1.2195   -4.4794   -0.0347 C.2       1 <0>         0.6099
     15 N3          0.7139   -3.2310   -0.0209 N.am      1 <0>        -0.6225
     16 O1          0.4795   -5.4455   -0.0331 O.2       1 <0>        -0.4922
     17 C13         5.9062   -6.2303   -0.0880 C.2       1 <0>         0.5623
     18 O2          7.0341   -5.7566   -0.0965 O.co2     1 <0>        -0.6790
     19 O3          5.7524   -7.4441   -0.0930 O.co2     1 <0>        -0.6672
     20 C14         3.5265   -0.9335   -0.0371 C.2       1 <0>         0.1966
     21 N4          4.8027   -0.6698   -0.0482 N.2       1 <0>        -0.2679
     22 O4          5.2480    0.6744   -0.0452 O.3       1 <0>        -0.2054
     23 C15         6.6699    0.8156   -0.0584 C.3       1 <0>         0.0630
     24 C16         7.0349    2.3014   -0.0539 C.3       1 <0>        -0.0855
     25 C17         8.5573    2.4527   -0.0680 C.3       1 <0>        -0.1803
     26 C18         8.9168    3.9162   -0.0635 C.2       1 <0>         0.4935
     27 O5          8.0369    4.7600   -0.0502 O.co2     1 <0>        -0.6989
     28 O6         10.0876    4.2564   -0.0732 O.co2     1 <0>        -0.7061
     29 H1         -0.9615    1.9010    0.0260 H         1 <0>         0.1326
     30 H2          1.1379    3.1764    0.0083 H         1 <0>         0.1360
     31 H3          3.3040    2.0041   -0.0199 H         1 <0>         0.1447
     32 H4         -0.9251   -0.5579    0.0076 H         1 <0>         0.1302
     33 H5          5.6396   -3.3293   -0.0699 H         1 <0>         0.1959
     34 H6          7.0910    0.3353    0.8248 H         1 <0>         0.0612
     35 H7          7.0735    0.3451   -0.9550 H         1 <0>         0.0612
     36 H8          6.6138    2.7817   -0.9371 H         1 <0>         0.0695
     37 H9          6.6314    2.7719    0.8428 H         1 <0>         0.0695
     38 H10         8.9784    1.9724    0.8152 H         1 <0>         0.0617
     39 H11         8.9609    1.9822   -0.9646 H         1 <0>         0.0617
     40 H12        -0.2477   -3.1039   -0.0109 H         1 <0>         0.4219
@<TRIPOS>BOND
     1    1    6 ar
     2    1    2 ar
     3    1   29 1
     4    2    3 ar
     5    2   30 1
     6    3    4 ar
     7    3   31 1
     8    4   20 1
     9    4    5 ar
    10    5    6 ar
    11    5    7 1
    12    6   32 1
    13    7   15 1
    14    7    8 2
    15    8    9 1
    16    8   20 1
    17    9   13 1
    18    9   10 1
    19   10   11 2
    20   10   33 1
    21   11   12 1
    22   11   17 1
    23   12   13 2
    24   13   14 1
    25   14   15 am
    26   14   16 2
    27   15   40 1
    28   17   18 2
    29   17   19 1
    30   20   21 2
    31   21   22 1
    32   22   23 1
    33   23   24 1
    34   23   34 1
    35   23   35 1
    36   24   25 1
    37   24   36 1
    38   24   37 1
    39   25   26 1
    40   25   38 1
    41   25   39 1
    42   26   27 2
    43   26   28 1
@<TRIPOS>MOLECULE
CHEMBL281393
   29    32     0     0     0
SMALL
USER_CHARGES

@<TRIPOS>ATOM
      1 C1         -0.0167    1.3767    0.0012 C.ar      1 <0>        -0.1032
      2 C2          1.1688    2.0931   -0.0052 C.ar      1 <0>        -0.1469
      3 C3          2.3834    1.4377   -0.0170 C.ar      1 <0>        -0.0848
      4 C4          2.4220    0.0447   -0.0226 C.ar      1 <0>        -0.0945
      5 C5          1.2177   -0.6802   -0.0160 C.ar      1 <0>         0.0128
      6 C6          0.0020   -0.0040   -0.0042 C.ar      1 <0>        -0.1016
      7 C7          1.5634   -2.1199   -0.0241 C.2       1 <0>        -0.1821
      8 C8          3.0304   -2.2113   -0.0359 C.2       1 <0>         0.1037
      9 N1          3.8843   -3.2851   -0.0471 N.pl3     1 <0>        -0.2601
     10 C9          3.6663   -4.6325   -0.0507 C.2       1 <0>         0.0342
     11 C10         4.8711   -5.2539   -0.0630 C.2       1 <0>         0.0671
     12 N2          5.8478   -4.2705   -0.0669 N.pl3     1 <0>        -0.4547
     13 H1          6.8068   -4.4160   -0.0753 H         1 <0>         0.4665
     14 C11         5.2189   -3.0652   -0.0570 C.2       1 <0>         0.2129
     15 C12         5.7040   -1.7448   -0.0555 C.2       1 <0>         0.4882
     16 N3          4.8716   -0.7259   -0.0443 N.pl3     1 <0>        -0.4939
     17 C13         3.5481   -0.9155   -0.0349 C.2       1 <0>         0.0710
     18 O1          7.0421   -1.5200   -0.0653 O.3       1 <0>        -0.5860
     19 C14         5.0996   -6.7044   -0.0703 C.2       1 <0>         0.5508
     20 O2          4.1478   -7.4739   -0.0652 O.co2     1 <0>        -0.6261
     21 O3          6.2418   -7.1439   -0.0813 O.co2     1 <0>        -0.6482
     22 N4          0.7204   -3.1235   -0.0210 N.2       1 <0>        -0.2733
     23 O4         -0.4750   -2.9144    0.0836 O.2       1 <0>        -0.1173
     24 H2         -0.9609    1.9009    0.0150 H         1 <0>         0.1236
     25 H3          1.1425    3.1728   -0.0012 H         1 <0>         0.1209
     26 H4          3.3031    2.0039   -0.0222 H         1 <0>         0.1149
     27 H5         -0.9252   -0.5578    0.0012 H         1 <0>         0.1399
     28 H6          2.7020   -5.1188   -0.0449 H         1 <0>         0.2300
     29 H7          5.2240    0.1779   -0.0432 H         1 <0>         0.4363
@<TRIPOS>BOND
     1    1    6 ar
     2    1    2 ar
     3    1   24 1
     4    2    3 ar
     5    2   25 1
     6    3    4 ar
     7    3   26 1
     8    4   17 1
     9    4    5 ar
    10    5    6 ar
    11    5    7 1
    12    6   27 1
    13    7    8 2
    14    7   22 1
    15    8   17 1
    16    8    9 1
    17    9   14 1
    18    9   10 1
    19   10   11 2
    20   10   28 1
    21   11   12 1
    22   11   19 1
    23   12   13 1
    24   12   14 1
    25   14   15 2
    26   15   16 1
    27   15   18 1
    28   16   17 2
    29   16   29 1
    30   19   20 2
    31   19   21 1
    32   22   23 2
@<TRIPOS>MOLECULE
CHEMBL281393
   28    31     0     0     0
SMALL
USER_CHARGES

@<TRIPOS>ATOM
      1 C1         -0.0167    1.3767    0.0012 C.ar      1 <0>        -0.1152
      2 C2          1.1688    2.0931   -0.0052 C.ar      1 <0>        -0.1738
      3 C3          2.3834    1.4377   -0.0170 C.ar      1 <0>        -0.0673
      4 C4          2.4220    0.0447   -0.0226 C.ar      1 <0>        -0.0812
      5 C5          1.2177   -0.6802   -0.0160 C.ar      1 <0>         0.0130
      6 C6          0.0020   -0.0040   -0.0042 C.ar      1 <0>        -0.1186
      7 C7          1.5634   -2.1199   -0.0241 C.2       1 <0>        -0.1870
      8 C8          3.0304   -2.2113   -0.0359 C.2       1 <0>         0.0207
      9 N1          3.8843   -3.2851   -0.0471 N.pl3     1 <0>        -0.2565
     10 C9          3.6663   -4.6325   -0.0507 C.2       1 <0>        -0.0161
     11 C10         4.8711   -5.2539   -0.0630 C.2       1 <0>         0.0347
     12 N2          5.8478   -4.2705   -0.0669 N.pl3     1 <0>        -0.5043
     13 H1          6.8068   -4.4160   -0.0753 H         1 <0>         0.4514
     14 C11         5.2189   -3.0652   -0.0570 C.2       1 <0>         0.1912
     15 C12         5.7040   -1.7448   -0.0555 C.2       1 <0>         0.4337
     16 N3          4.8716   -0.7259   -0.0443 N.2       1 <0>        -0.5222
     17 C13         3.5481   -0.9155   -0.0349 C.2       1 <0>         0.1608
     18 O1          7.0421   -1.5200   -0.0653 O.3       1 <0>        -0.6771
     19 C14         5.0996   -6.7044   -0.0703 C.2       1 <0>         0.5580
     20 O2          4.1478   -7.4739   -0.0652 O.co2     1 <0>        -0.6503
     21 O3          6.2418   -7.1439   -0.0813 O.co2     1 <0>        -0.6698
     22 N4          0.7204   -3.1235   -0.0210 N.2       1 <0>        -0.2621
     23 O4         -0.4750   -2.9144    0.0836 O.2       1 <0>        -0.2331
     24 H2         -0.9609    1.9009    0.0150 H         1 <0>         0.1102
     25 H3          1.1425    3.1728   -0.0012 H         1 <0>         0.1091
     26 H4          3.3031    2.0039   -0.0222 H         1 <0>         0.1153
     27 H5         -0.9252   -0.5578    0.0012 H         1 <0>         0.1287
     28 H6          2.7020   -5.1188   -0.0449 H         1 <0>         0.2077
@<TRIPOS>BOND
     1    1    6 ar
     2    1    2 ar
     3    1   24 1
     4    2    3 ar
     5    2   25 1
     6    3    4 ar
     7    3   26 1
     8    4   17 1
     9    4    5 ar
    10    5    6 ar
    11    5    7 1
    12    6   27 1
    13    7    8 2
    14    7   22 1
    15    8   17 1
    16    8    9 1
    17    9   14 1
    18    9   10 1
    19   10   11 2
    20   10   28 1
    21   11   12 1
    22   11   19 1
    23   12   13 1
    24   12   14 1
    25   14   15 2
    26   15   16 1
    27   15   18 1
    28   16   17 2
    29   19   20 2
    30   19   21 1
    31   22   23 2
@<TRIPOS>MOLECULE
CHEMBL277340
   35    39     0     0     0
SMALL
USER_CHARGES

@<TRIPOS>ATOM
      1 C1         -0.0166    1.3753    0.0096 C.ar      1 <0>        -0.1150
      2 C2          1.1682    2.0896    0.0021 C.ar      1 <0>        -0.1294
      3 C3          2.3809    1.4227   -0.0135 C.ar      1 <0>        -0.0810
      4 C4          2.4080    0.0452   -0.0212 C.ar      1 <0>        -0.1064
      5 C5          1.2218   -0.6828   -0.0133 C.ar      1 <0>        -0.0017
      6 C6          0.0021   -0.0041    0.0020 C.ar      1 <0>        -0.0876
      7 C7          1.5345   -2.1362   -0.0238 C.2       1 <0>         0.1952
      8 C8          2.8789   -2.3166   -0.0378 C.2       1 <0>        -0.1567
      9 N1          3.4199   -3.5752   -0.0491 N.pl3     1 <0>        -0.3140
     10 C9          4.6886   -4.0349   -0.0637 C.2       1 <0>        -0.0530
     11 C10         4.6170   -5.4139   -0.0695 C.2       1 <0>        -0.0284
     12 N2          3.3163   -5.7595   -0.0584 N.2       1 <0>        -0.4129
     13 C11         2.5839   -4.6661   -0.0461 C.2       1 <0>         0.1107
     14 C12         1.1395   -4.4287   -0.0308 C.2       1 <0>         0.5144
     15 N3          0.6941   -3.1951   -0.0214 N.2       1 <0>        -0.6164
     16 O1          0.2731   -5.4708   -0.0269 O.3       1 <0>        -0.6450
     17 C13         5.7605   -6.3415   -0.0856 C.2       1 <0>         0.5664
     18 O2          6.9029   -5.9040   -0.0951 O.co2     1 <0>        -0.7003
     19 O3          5.5681   -7.5496   -0.0894 O.co2     1 <0>        -0.6788
     20 C14         3.5362   -0.9555   -0.0373 C.3       1 <0>         0.2537
     21 N4          4.3695   -0.7971    1.1571 N.pl3     1 <0>        -0.4255
     22 C15         3.9390   -0.9055    2.4462 C.2       1 <0>         0.0131
     23 C16         4.9924   -0.6956    3.2616 C.2       1 <0>        -0.2134
     24 C17         6.1143   -0.4484    2.4460 C.2       1 <0>        -0.2026
     25 C18         5.7050   -0.5226    1.1632 C.2       1 <0>        -0.0189
     26 H1         -0.9605    1.9000    0.0260 H         1 <0>         0.1229
     27 H2          1.1468    3.1693    0.0081 H         1 <0>         0.1221
     28 H3          3.3050    1.9815   -0.0201 H         1 <0>         0.1205
     29 H4         -0.9252   -0.5578    0.0083 H         1 <0>         0.1317
     30 H5          5.5886   -3.4379   -0.0702 H         1 <0>         0.1676
     31 H6          4.1388   -0.8286   -0.9367 H         1 <0>         0.1083
     32 H7          2.9285   -1.1217    2.7602 H         1 <0>         0.1489
     33 H8          4.9785   -0.7135    4.3413 H         1 <0>         0.1276
     34 H9          7.1185   -0.2421    2.7857 H         1 <0>         0.1288
     35 H10         6.3273   -0.3859    0.2912 H         1 <0>         0.1552
@<TRIPOS>BOND
     1    1    6 ar
     2    1    2 ar
     3    1   26 1
     4    2    3 ar
     5    2   27 1
     6    3    4 ar
     7    3   28 1
     8    4   20 1
     9    4    5 ar
    10    5    6 ar
    11    5    7 1
    12    6   29 1
    13    7   15 1
    14    7    8 2
    15    8    9 1
    16    8   20 1
    17    9   13 1
    18    9   10 1
    19   10   11 2
    20   10   30 1
    21   11   12 1
    22   11   17 1
    23   12   13 2
    24   13   14 1
    25   14   15 2
    26   14   16 1
    27   17   18 2
    28   17   19 1
    29   20   21 1
    30   20   31 1
    31   21   25 1
    32   21   22 1
    33   22   23 2
    34   22   32 1
    35   23   24 1
    36   23   33 1
    37   24   25 2
    38   24   34 1
    39   25   35 1
@<TRIPOS>MOLECULE
CHEMBL277340
   36    40     0     0     0
SMALL
USER_CHARGES

@<TRIPOS>ATOM
      1 C1         -0.0166    1.3750    0.0096 C.ar      1 <0>        -0.1027
      2 C2          1.1679    2.0902    0.0021 C.ar      1 <0>        -0.1066
      3 C3          2.3818    1.4246   -0.0135 C.ar      1 <0>        -0.0684
      4 C4          2.4102    0.0482   -0.0212 C.ar      1 <0>        -0.0950
      5 C5          1.2236   -0.6826   -0.0133 C.ar      1 <0>        -0.0399
      6 C6          0.0021   -0.0041    0.0020 C.ar      1 <0>        -0.0911
      7 C7          1.5392   -2.1310   -0.0243 C.2       1 <0>         0.1412
      8 C8          2.8683   -2.3149   -0.0385 C.2       1 <0>         0.0108
      9 N1          3.4209   -3.5831   -0.0512 N.pl3     1 <0>        -0.3572
     10 C9          4.6957   -4.0187   -0.0662 C.2       1 <0>         0.0112
     11 C10         4.6473   -5.4014   -0.0737 C.2       1 <0>        -0.0115
     12 N2          3.3540   -5.7661   -0.0630 N.2       1 <0>        -0.3617
     13 C11         2.6069   -4.6876   -0.0494 C.2       1 <0>         0.1003
     14 C12         1.1471   -4.4830   -0.0334 C.2       1 <0>         0.6076
     15 N3          0.6700   -3.2232   -0.0215 N.am      1 <0>        -0.6308
     16 O1          0.3875   -5.4340   -0.0315 O.2       1 <0>        -0.4882
     17 C13         5.8051   -6.3102   -0.0910 C.2       1 <0>         0.5604
     18 O2          6.9405   -5.8545   -0.1003 O.co2     1 <0>        -0.6807
     19 O3          5.6321   -7.5214   -0.0962 O.co2     1 <0>        -0.6616
     20 C14         3.5346   -0.9564   -0.0378 C.3       1 <0>         0.2405
     21 N4          4.3686   -0.8023    1.1567 N.pl3     1 <0>        -0.4395
     22 C15         3.9378   -0.9104    2.4458 C.2       1 <0>        -0.0021
     23 C16         4.9920   -0.7052    3.2612 C.2       1 <0>        -0.1952
     24 C17         6.1148   -0.4616    2.4458 C.2       1 <0>        -0.1898
     25 C18         5.7051   -0.5329    1.1630 C.2       1 <0>        -0.0142
     26 H1         -0.9607    1.8994    0.0260 H         1 <0>         0.1339
     27 H2          1.1455    3.1700    0.0082 H         1 <0>         0.1346
     28 H3          3.3054    1.9844   -0.0200 H         1 <0>         0.1330
     29 H4         -0.9250   -0.5581    0.0083 H         1 <0>         0.1303
     30 H5          5.5851   -3.4059   -0.0718 H         1 <0>         0.1904
     31 H6          4.1373   -0.8321   -0.9374 H         1 <0>         0.1348
     32 H7          2.9265   -1.1230    2.7596 H         1 <0>         0.1515
     33 H8          4.9781   -0.7242    4.3410 H         1 <0>         0.1346
     34 H9          7.1198   -0.2594    2.7856 H         1 <0>         0.1374
     35 H10         6.3279   -0.3977    0.2910 H         1 <0>         0.1635
     36 H11        -0.2883   -3.0734   -0.0109 H         1 <0>         0.4201
@<TRIPOS>BOND
     1    1    6 ar
     2    1    2 ar
     3    1   26 1
     4    2    3 ar
     5    2   27 1
     6    3    4 ar
     7    3   28 1
     8    4   20 1
     9    4    5 ar
    10    5    6 ar
    11    5    7 1
    12    6   29 1
    13    7   15 1
    14    7    8 2
    15    8    9 1
    16    8   20 1
    17    9   13 1
    18    9   10 1
    19   10   11 2
    20   10   30 1
    21   11   12 1
    22   11   17 1
    23   12   13 2
    24   13   14 1
    25   14   15 am
    26   14   16 2
    27   15   36 1
    28   17   18 2
    29   17   19 1
    30   20   21 1
    31   20   31 1
    32   21   25 1
    33   21   22 1
    34   22   23 2
    35   22   32 1
    36   23   24 1
    37   23   33 1
    38   24   25 2
    39   24   34 1
    40   25   35 1
@<TRIPOS>MOLECULE
CHEMBL277340
   35    39     0     0     0
SMALL
USER_CHARGES

@<TRIPOS>ATOM
      1 C1         -0.0166    1.3753    0.0096 C.ar      1 <0>        -0.1150
      2 C2          1.1682    2.0896    0.0021 C.ar      1 <0>        -0.1294
      3 C3          2.3809    1.4227   -0.0135 C.ar      1 <0>        -0.0810
      4 C4          2.4080    0.0452   -0.0212 C.ar      1 <0>        -0.1066
      5 C5          1.2218   -0.6828   -0.0133 C.ar      1 <0>        -0.0016
      6 C6          0.0021   -0.0041    0.0020 C.ar      1 <0>        -0.0876
      7 C7          1.5345   -2.1362   -0.0238 C.2       1 <0>         0.1951
      8 C8          2.8789   -2.3166   -0.0378 C.2       1 <0>        -0.1564
      9 N1          3.4199   -3.5752   -0.0491 N.pl3     1 <0>        -0.3140
     10 C9          4.6886   -4.0349   -0.0637 C.2       1 <0>        -0.0530
     11 C10         4.6170   -5.4139   -0.0695 C.2       1 <0>        -0.0285
     12 N2          3.3163   -5.7595   -0.0584 N.2       1 <0>        -0.4129
     13 C11         2.5839   -4.6661   -0.0461 C.2       1 <0>         0.1107
     14 C12         1.1395   -4.4287   -0.0308 C.2       1 <0>         0.5144
     15 N3          0.6941   -3.1951   -0.0214 N.2       1 <0>        -0.6164
     16 O1          0.2731   -5.4708   -0.0269 O.3       1 <0>        -0.6451
     17 C13         5.7605   -6.3415   -0.0856 C.2       1 <0>         0.5664
     18 O2          6.9029   -5.9040   -0.0951 O.co2     1 <0>        -0.7003
     19 O3          5.5681   -7.5496   -0.0894 O.co2     1 <0>        -0.6788
     20 C14         3.5362   -0.9555   -0.0373 C.3       1 <0>         0.2537
     21 N4          4.3461   -0.7849   -1.2461 N.pl3     1 <0>        -0.4254
     22 C15         3.8880   -0.8686   -2.5275 C.2       1 <0>         0.0129
     23 C16         4.9262   -0.6545   -3.3612 C.2       1 <0>        -0.2135
     24 C17         6.0669   -0.4303   -2.5652 C.2       1 <0>        -0.2023
     25 C18         5.6812   -0.5102   -1.2755 C.2       1 <0>        -0.0191
     26 H1         -0.9605    1.9000    0.0260 H         1 <0>         0.1229
     27 H2          1.1468    3.1693    0.0081 H         1 <0>         0.1221
     28 H3          3.3050    1.9815   -0.0201 H         1 <0>         0.1205
     29 H4         -0.9252   -0.5578    0.0083 H         1 <0>         0.1317
     30 H5          5.5886   -3.4379   -0.0702 H         1 <0>         0.1677
     31 H6          4.1562   -0.8377    0.8514 H         1 <0>         0.1083
     32 H7          2.8696   -1.0720   -2.8239 H         1 <0>         0.1489
     33 H8          4.8898   -0.6548   -4.4405 H         1 <0>         0.1276
     34 H9          7.0657   -0.2272   -2.9224 H         1 <0>         0.1289
     35 H10         6.3202   -0.3811   -0.4144 H         1 <0>         0.1552
@<TRIPOS>BOND
     1    1    6 ar
     2    1    2 ar
     3    1   26 1
     4    2    3 ar
     5    2   27 1
     6    3    4 ar
     7    3   28 1
     8    4   20 1
     9    4    5 ar
    10    5    6 ar
    11    5    7 1
    12    6   29 1
    13    7   15 1
    14    7    8 2
    15    8    9 1
    16    8   20 1
    17    9   13 1
    18    9   10 1
    19   10   11 2
    20   10   30 1
    21   11   12 1
    22   11   17 1
    23   12   13 2
    24   13   14 1
    25   14   15 2
    26   14   16 1
    27   17   18 2
    28   17   19 1
    29   20   21 1
    30   20   31 1
    31   21   25 1
    32   21   22 1
    33   22   23 2
    34   22   32 1
    35   23   24 1
    36   23   33 1
    37   24   25 2
    38   24   34 1
    39   25   35 1
@<TRIPOS>MOLECULE
CHEMBL277340
   36    40     0     0     0
SMALL
USER_CHARGES

@<TRIPOS>ATOM
      1 C1         -0.0166    1.3750    0.0096 C.ar      1 <0>        -0.1027
      2 C2          1.1679    2.0902    0.0021 C.ar      1 <0>        -0.1066
      3 C3          2.3818    1.4246   -0.0135 C.ar      1 <0>        -0.0684
      4 C4          2.4102    0.0482   -0.0212 C.ar      1 <0>        -0.0952
      5 C5          1.2236   -0.6826   -0.0133 C.ar      1 <0>        -0.0398
      6 C6          0.0021   -0.0041    0.0020 C.ar      1 <0>        -0.0911
      7 C7          1.5392   -2.1310   -0.0243 C.2       1 <0>         0.1412
      8 C8          2.8683   -2.3149   -0.0385 C.2       1 <0>         0.0110
      9 N1          3.4209   -3.5831   -0.0512 N.pl3     1 <0>        -0.3572
     10 C9          4.6957   -4.0187   -0.0662 C.2       1 <0>         0.0113
     11 C10         4.6473   -5.4014   -0.0737 C.2       1 <0>        -0.0116
     12 N2          3.3540   -5.7661   -0.0630 N.2       1 <0>        -0.3618
     13 C11         2.6069   -4.6876   -0.0494 C.2       1 <0>         0.1003
     14 C12         1.1471   -4.4830   -0.0334 C.2       1 <0>         0.6077
     15 N3          0.6700   -3.2232   -0.0215 N.am      1 <0>        -0.6308
     16 O1          0.3875   -5.4340   -0.0315 O.2       1 <0>        -0.4882
     17 C13         5.8051   -6.3102   -0.0910 C.2       1 <0>         0.5604
     18 O2          6.9405   -5.8545   -0.1003 O.co2     1 <0>        -0.6807
     19 O3          5.6321   -7.5214   -0.0962 O.co2     1 <0>        -0.6616
     20 C14         3.5346   -0.9564   -0.0378 C.3       1 <0>         0.2405
     21 N4          4.3447   -0.7894   -1.2469 N.pl3     1 <0>        -0.4395
     22 C15         3.8860   -0.8720   -2.5282 C.2       1 <0>        -0.0021
     23 C16         4.9247   -0.6623   -3.3622 C.2       1 <0>        -0.1953
     24 C17         6.0665   -0.4420   -2.5667 C.2       1 <0>        -0.1896
     25 C18         5.6809   -0.5198   -1.2768 C.2       1 <0>        -0.0143
     26 H1         -0.9607    1.8994    0.0260 H         1 <0>         0.1339
     27 H2          1.1455    3.1700    0.0082 H         1 <0>         0.1346
     28 H3          3.3054    1.9844   -0.0200 H         1 <0>         0.1330
     29 H4         -0.9250   -0.5581    0.0083 H         1 <0>         0.1303
     30 H5          5.5851   -3.4059   -0.0718 H         1 <0>         0.1904
     31 H6          4.1551   -0.8417    0.8510 H         1 <0>         0.1348
     32 H7          2.8667   -1.0717   -2.8241 H         1 <0>         0.1516
     33 H8          4.8880   -0.6629   -4.4416 H         1 <0>         0.1346
     34 H9          7.0659   -0.2429   -2.9242 H         1 <0>         0.1374
     35 H10         6.3206   -0.3927   -0.4160 H         1 <0>         0.1635
     36 H11        -0.2883   -3.0734   -0.0109 H         1 <0>         0.4201
@<TRIPOS>BOND
     1    1    6 ar
     2    1    2 ar
     3    1   26 1
     4    2    3 ar
     5    2   27 1
     6    3    4 ar
     7    3   28 1
     8    4   20 1
     9    4    5 ar
    10    5    6 ar
    11    5    7 1
    12    6   29 1
    13    7   15 1
    14    7    8 2
    15    8    9 1
    16    8   20 1
    17    9   13 1
    18    9   10 1
    19   10   11 2
    20   10   30 1
    21   11   12 1
    22   11   17 1
    23   12   13 2
    24   13   14 1
    25   14   15 am
    26   14   16 2
    27   15   36 1
    28   17   18 2
    29   17   19 1
    30   20   21 1
    31   20   31 1
    32   21   25 1
    33   21   22 1
    34   22   23 2
    35   22   32 1
    36   23   24 1
    37   23   33 1
    38   24   25 2
    39   24   34 1
    40   25   35 1
@<TRIPOS>MOLECULE
CHEMBL273569
   44    48     0     0     0
SMALL
USER_CHARGES

@<TRIPOS>ATOM
      1 C1         -0.0176    1.3773   -0.0139 C.ar      1 <0>        -0.1382
      2 C2          1.0917    1.9439    0.5866 C.ar      1 <0>        -0.1034
      3 C3          2.2995    1.2740    0.5810 C.ar      1 <0>        -0.1474
      4 C4          2.3992    0.0303   -0.0285 C.ar      1 <0>         0.1647
      5 C5          1.2834   -0.5359   -0.6308 C.ar      1 <0>        -0.1174
      6 C6          0.0784    0.1390   -0.6218 C.ar      1 <0>        -0.1017
      7 N1          3.6217   -0.6508   -0.0363 N.am      1 <0>        -0.6832
      8 C7          3.6448   -1.9950    0.0580 C.2       1 <0>         0.7119
      9 O1          2.6030   -2.6219    0.0652 O.2       1 <0>        -0.5668
     10 N2          4.8227   -2.6444    0.1444 N.am      1 <0>        -0.7263
     11 C8          4.8478   -4.1055    0.2469 C.3       1 <0>         0.2681
     12 C9          4.7770   -4.5276    1.6928 C.ar      1 <0>        -0.0870
     13 C10         3.8365   -4.3389    2.6803 C.ar      1 <0>        -0.0706
     14 C11         4.0514   -4.8560    3.9466 C.ar      1 <0>        -0.1070
     15 C12         5.2094   -5.5619    4.2215 C.ar      1 <0>        -0.1081
     16 C13         6.1571   -5.7559    3.2384 C.ar      1 <0>        -0.0912
     17 C14         5.9469   -5.2368    1.9581 C.ar      1 <0>        -0.0489
     18 C15         6.7773   -5.2902    0.7314 C.2       1 <0>         0.1504
     19 C16         6.1636   -4.6434   -0.2715 C.2       1 <0>         0.0028
     20 N3          6.7370   -4.5495   -1.5269 N.pl3     1 <0>        -0.3579
     21 C17         6.3286   -3.9672   -2.6712 C.2       1 <0>         0.0063
     22 C18         7.3169   -4.1948   -3.6123 C.2       1 <0>        -0.0118
     23 N4          8.2920   -4.9040   -3.0190 N.2       1 <0>        -0.3626
     24 C19         7.9591   -5.1244   -1.7692 C.2       1 <0>         0.1011
     25 C20         8.6313   -5.8343   -0.6660 C.2       1 <0>         0.6072
     26 N5          8.0211   -5.8921    0.5337 N.am      1 <0>        -0.6309
     27 O2          9.7161   -6.3593   -0.8361 O.2       1 <0>        -0.4884
     28 C21         7.3026   -3.7417   -5.0128 C.2       1 <0>         0.5597
     29 O3          6.3521   -3.0996   -5.4383 O.co2     1 <0>        -0.6815
     30 O4          8.2412   -4.0073   -5.7512 O.co2     1 <0>        -0.6612
     31 H1         -0.9621    1.9011   -0.0043 H         1 <0>         0.1209
     32 H2          1.0135    2.9113    1.0602 H         1 <0>         0.1239
     33 H3          3.1656    1.7172    1.0499 H         1 <0>         0.1234
     34 H4          1.3578   -1.5029   -1.1060 H         1 <0>         0.1428
     35 H5         -0.7897   -0.3008   -1.0901 H         1 <0>         0.1247
     36 H6          4.4524   -0.1554   -0.1096 H         1 <0>         0.4095
     37 H7          5.6538   -2.1442    0.1387 H         1 <0>         0.4050
     38 H8          4.0179   -4.5362   -0.3134 H         1 <0>         0.1312
     39 H9          2.9323   -3.7879    2.4677 H         1 <0>         0.1350
     40 H10         3.3139   -4.7077    4.7215 H         1 <0>         0.1319
     41 H11         5.3721   -5.9628    5.2111 H         1 <0>         0.1317
     42 H12         7.0593   -6.3078    3.4574 H         1 <0>         0.1282
     43 H13         5.4063   -3.4267   -2.8246 H         1 <0>         0.1906
     44 H14         8.4516   -6.3559    1.2689 H         1 <0>         0.4203
@<TRIPOS>BOND
     1    1    6 ar
     2    1    2 ar
     3    1   31 1
     4    2    3 ar
     5    2   32 1
     6    3    4 ar
     7    3   33 1
     8    4    5 ar
     9    4    7 1
    10    5    6 ar
    11    5   34 1
    12    6   35 1
    13    7    8 am
    14    7   36 1
    15    8    9 2
    16    8   10 am
    17   10   11 1
    18   10   37 1
    19   11   19 1
    20   11   12 1
    21   11   38 1
    22   12   17 ar
    23   12   13 ar
    24   13   14 ar
    25   13   39 1
    26   14   15 ar
    27   14   40 1
    28   15   16 ar
    29   15   41 1
    30   16   17 ar
    31   16   42 1
    32   17   18 1
    33   18   26 1
    34   18   19 2
    35   19   20 1
    36   20   24 1
    37   20   21 1
    38   21   22 2
    39   21   43 1
    40   22   23 1
    41   22   28 1
    42   23   24 2
    43   24   25 1
    44   25   26 am
    45   25   27 2
    46   26   44 1
    47   28   29 2
    48   28   30 1
@<TRIPOS>MOLECULE
CHEMBL273569
   43    47     0     0     0
SMALL
USER_CHARGES

@<TRIPOS>ATOM
      1 C1         -0.0176    1.3773   -0.0139 C.ar      1 <0>        -0.1465
      2 C2          1.0917    1.9439    0.5866 C.ar      1 <0>        -0.1048
      3 C3          2.2995    1.2740    0.5810 C.ar      1 <0>        -0.1525
      4 C4          2.3992    0.0303   -0.0285 C.ar      1 <0>         0.1765
      5 C5          1.2834   -0.5359   -0.6308 C.ar      1 <0>        -0.1189
      6 C6          0.0784    0.1390   -0.6218 C.ar      1 <0>        -0.1024
      7 N1          3.6217   -0.6508   -0.0363 N.am      1 <0>        -0.6894
      8 C7          3.6448   -1.9950    0.0580 C.2       1 <0>         0.7074
      9 O1          2.6030   -2.6219    0.0652 O.2       1 <0>        -0.5765
     10 N2          4.8227   -2.6444    0.1444 N.am      1 <0>        -0.7178
     11 C8          4.8478   -4.1055    0.2469 C.3       1 <0>         0.2842
     12 C9          4.7734   -4.5270    1.6930 C.ar      1 <0>        -0.0983
     13 C10         3.8265   -4.3343    2.6751 C.ar      1 <0>        -0.0828
     14 C11         4.0324   -4.8483    3.9436 C.ar      1 <0>        -0.1303
     15 C12         5.1874   -5.5553    4.2270 C.ar      1 <0>        -0.1207
     16 C13         6.1403   -5.7526    3.2492 C.ar      1 <0>        -0.0879
     17 C14         5.9387   -5.2368    1.9678 C.ar      1 <0>        -0.0107
     18 C15         6.7807   -5.2960    0.7440 C.2       1 <0>         0.2016
     19 C16         6.1623   -4.6422   -0.2710 C.2       1 <0>        -0.1629
     20 N3          6.7423   -4.5561   -1.5093 N.pl3     1 <0>        -0.3145
     21 C17         6.3614   -3.9816   -2.6695 C.2       1 <0>        -0.0584
     22 C18         7.3648   -4.2233   -3.5867 C.2       1 <0>        -0.0289
     23 N4          8.3263   -4.9339   -2.9688 N.2       1 <0>        -0.4134
     24 C19         7.9675   -5.1422   -1.7198 C.2       1 <0>         0.1109
     25 C20         8.6014   -5.8382   -0.5988 C.2       1 <0>         0.5138
     26 N5          7.9854   -5.8808    0.5584 N.2       1 <0>        -0.6165
     27 O2          9.8091   -6.4328   -0.7552 O.3       1 <0>        -0.6455
     28 C21         7.3800   -3.7823   -4.9916 C.2       1 <0>         0.5657
     29 O3          6.4417   -3.1386   -5.4408 O.co2     1 <0>        -0.7012
     30 O4          8.3309   -4.0598   -5.7096 O.co2     1 <0>        -0.6785
     31 H1         -0.9621    1.9011   -0.0043 H         1 <0>         0.1171
     32 H2          1.0135    2.9113    1.0602 H         1 <0>         0.1205
     33 H3          3.1656    1.7172    1.0499 H         1 <0>         0.1223
     34 H4          1.3578   -1.5029   -1.1060 H         1 <0>         0.1439
     35 H5         -0.7897   -0.3008   -1.0901 H         1 <0>         0.1220
     36 H6          4.4524   -0.1554   -0.1096 H         1 <0>         0.4079
     37 H7          5.6538   -2.1442    0.1387 H         1 <0>         0.4012
     38 H8          4.0185   -4.5358   -0.3145 H         1 <0>         0.1047
     39 H9          2.9246   -3.7823    2.4555 H         1 <0>         0.1230
     40 H10         3.2904   -4.6969    4.7136 H         1 <0>         0.1191
     41 H11         5.3439   -5.9542    5.2184 H         1 <0>         0.1204
     42 H12         7.0407   -6.3048    3.4747 H         1 <0>         0.1294
     43 H13         5.4457   -3.4370   -2.8469 H         1 <0>         0.1677
@<TRIPOS>BOND
     1    1    6 ar
     2    1    2 ar
     3    1   31 1
     4    2    3 ar
     5    2   32 1
     6    3    4 ar
     7    3   33 1
     8    4    5 ar
     9    4    7 1
    10    5    6 ar
    11    5   34 1
    12    6   35 1
    13    7    8 am
    14    7   36 1
    15    8    9 2
    16    8   10 am
    17   10   11 1
    18   10   37 1
    19   11   19 1
    20   11   12 1
    21   11   38 1
    22   12   17 ar
    23   12   13 ar
    24   13   14 ar
    25   13   39 1
    26   14   15 ar
    27   14   40 1
    28   15   16 ar
    29   15   41 1
    30   16   17 ar
    31   16   42 1
    32   17   18 1
    33   18   26 1
    34   18   19 2
    35   19   20 1
    36   20   24 1
    37   20   21 1
    38   21   22 2
    39   21   43 1
    40   22   23 1
    41   22   28 1
    42   23   24 2
    43   24   25 1
    44   25   26 2
    45   25   27 1
    46   28   29 2
    47   28   30 1
@<TRIPOS>MOLECULE
CHEMBL273569
   44    48     0     0     0
SMALL
USER_CHARGES

@<TRIPOS>ATOM
      1 C1         -0.0153    1.3805    0.0311 C.ar      1 <0>        -0.1392
      2 C2          0.1397    0.2186    0.7646 C.ar      1 <0>        -0.0991
      3 C3          1.3441   -0.4572    0.7442 C.ar      1 <0>        -0.1179
      4 C4          2.3999    0.0314   -0.0139 C.ar      1 <0>         0.1679
      5 C5          2.2411    1.1985   -0.7495 C.ar      1 <0>        -0.1489
      6 C6          1.0342    1.8696   -0.7249 C.ar      1 <0>        -0.1020
      7 N1          3.6217   -0.6508   -0.0363 N.am      1 <0>        -0.6831
      8 C7          3.6448   -1.9950    0.0580 C.2       1 <0>         0.7114
      9 O1          2.6030   -2.6219    0.0652 O.2       1 <0>        -0.5659
     10 N2          4.8227   -2.6444    0.1444 N.am      1 <0>        -0.7264
     11 C8          4.8478   -4.1055    0.2469 C.3       1 <0>         0.2681
     12 C9          4.8757   -4.7238   -1.1280 C.ar      1 <0>        -0.0874
     13 C10         4.0067   -4.6788   -2.1949 C.ar      1 <0>        -0.0708
     14 C11         4.3064   -5.3656   -3.3591 C.ar      1 <0>        -0.1070
     15 C12         5.4773   -6.0972   -3.4525 C.ar      1 <0>        -0.1080
     16 C13         6.3537   -6.1480   -2.3888 C.ar      1 <0>        -0.0912
     17 C14         6.0578   -5.4573   -1.2106 C.ar      1 <0>        -0.0488
     18 C15         6.8006   -5.3364    0.0665 C.2       1 <0>         0.1503
     19 C16         6.1217   -4.5601    0.9251 C.2       1 <0>         0.0031
     20 N3          6.6061   -4.2919    2.1928 N.pl3     1 <0>        -0.3578
     21 C17         6.1218   -3.5592    3.2144 C.2       1 <0>         0.0066
     22 C18         7.0404   -3.6509    4.2450 C.2       1 <0>        -0.0117
     23 N4          8.0507   -4.4311    3.8250 N.2       1 <0>        -0.3625
     24 C19         7.8049   -4.8229    2.5971 C.2       1 <0>         0.1009
     25 C20         8.5489   -5.6753    1.6522 C.2       1 <0>         0.6072
     26 N5          8.0251   -5.8985    0.4312 N.am      1 <0>        -0.6310
     27 O2          9.6164   -6.1668    1.9685 O.2       1 <0>        -0.4883
     28 C21         6.9308   -3.0086    5.5649 C.2       1 <0>         0.5596
     29 O3          5.9569   -2.3172    5.8299 O.co2     1 <0>        -0.6813
     30 O4          7.8138   -3.1661    6.3971 O.co2     1 <0>        -0.6614
     31 H1         -0.9595    1.9047    0.0451 H         1 <0>         0.1212
     32 H2         -0.6817   -0.1607    1.3543 H         1 <0>         0.1252
     33 H3          1.4646   -1.3645    1.3176 H         1 <0>         0.1379
     34 H4          3.0605    1.5812   -1.3398 H         1 <0>         0.1234
     35 H5          0.9101    2.7774   -1.2967 H         1 <0>         0.1240
     36 H6          4.4519   -0.1561   -0.1198 H         1 <0>         0.4089
     37 H7          5.6538   -2.1442    0.1387 H         1 <0>         0.4051
     38 H8          3.9789   -4.4586    0.8024 H         1 <0>         0.1312
     39 H9          3.0922   -4.1086   -2.1237 H         1 <0>         0.1350
     40 H10         3.6247   -5.3307   -4.1960 H         1 <0>         0.1319
     41 H11         5.7059   -6.6313   -4.3629 H         1 <0>         0.1318
     42 H12         7.2666   -6.7200   -2.4663 H         1 <0>         0.1282
     43 H13         5.1943   -3.0059    3.2265 H         1 <0>         0.1906
     44 H14         8.5035   -6.4574   -0.2010 H         1 <0>         0.4203
@<TRIPOS>BOND
     1    1    6 ar
     2    1    2 ar
     3    1   31 1
     4    2    3 ar
     5    2   32 1
     6    3    4 ar
     7    3   33 1
     8    4    5 ar
     9    4    7 1
    10    5    6 ar
    11    5   34 1
    12    6   35 1
    13    7    8 am
    14    7   36 1
    15    8    9 2
    16    8   10 am
    17   10   11 1
    18   10   37 1
    19   11   19 1
    20   11   12 1
    21   11   38 1
    22   12   17 ar
    23   12   13 ar
    24   13   14 ar
    25   13   39 1
    26   14   15 ar
    27   14   40 1
    28   15   16 ar
    29   15   41 1
    30   16   17 ar
    31   16   42 1
    32   17   18 1
    33   18   26 1
    34   18   19 2
    35   19   20 1
    36   20   24 1
    37   20   21 1
    38   21   22 2
    39   21   43 1
    40   22   23 1
    41   22   28 1
    42   23   24 2
    43   24   25 1
    44   25   26 am
    45   25   27 2
    46   26   44 1
    47   28   29 2
    48   28   30 1
@<TRIPOS>MOLECULE
CHEMBL273569
   43    47     0     0     0
SMALL
USER_CHARGES

@<TRIPOS>ATOM
      1 C1         -0.0153    1.3805    0.0311 C.ar      1 <0>        -0.1475
      2 C2          0.1397    0.2186    0.7646 C.ar      1 <0>        -0.0997
      3 C3          1.3441   -0.4572    0.7442 C.ar      1 <0>        -0.1191
      4 C4          2.3999    0.0314   -0.0139 C.ar      1 <0>         0.1797
      5 C5          2.2411    1.1985   -0.7495 C.ar      1 <0>        -0.1543
      6 C6          1.0342    1.8696   -0.7249 C.ar      1 <0>        -0.1035
      7 N1          3.6217   -0.6508   -0.0363 N.am      1 <0>        -0.6892
      8 C7          3.6448   -1.9950    0.0580 C.2       1 <0>         0.7069
      9 O1          2.6030   -2.6219    0.0652 O.2       1 <0>        -0.5756
     10 N2          4.8227   -2.6444    0.1444 N.am      1 <0>        -0.7178
     11 C8          4.8478   -4.1055    0.2469 C.3       1 <0>         0.2841
     12 C9          4.8722   -4.7234   -1.1286 C.ar      1 <0>        -0.0987
     13 C10         3.9965   -4.6735   -2.1911 C.ar      1 <0>        -0.0830
     14 C11         4.2873   -5.3577   -3.3586 C.ar      1 <0>        -0.1304
     15 C12         5.4558   -6.0915   -3.4604 C.ar      1 <0>        -0.1206
     16 C13         6.3377   -6.1464   -2.4010 C.ar      1 <0>        -0.0879
     17 C14         6.0503   -5.4586   -1.2208 C.ar      1 <0>        -0.0106
     18 C15         6.8048   -5.3439    0.0551 C.2       1 <0>         0.2014
     19 C16         6.1205   -4.5590    0.9244 C.2       1 <0>        -0.1626
     20 N3          6.6127   -4.3008    2.1766 N.pl3     1 <0>        -0.3144
     21 C17         6.1538   -3.5747    3.2175 C.2       1 <0>        -0.0581
     22 C18         7.0887   -3.6844    4.2279 C.2       1 <0>        -0.0289
     23 N4          8.0875   -4.4686    3.7824 N.2       1 <0>        -0.4134
     24 C19         7.8167   -4.8473    2.5514 C.2       1 <0>         0.1108
     25 C20         8.5238   -5.6885    1.5842 C.2       1 <0>         0.5138
     26 N5          7.9915   -5.8905    0.4026 N.2       1 <0>        -0.6165
     27 O2          9.7145   -6.2503    1.9052 O.3       1 <0>        -0.6455
     28 C21         7.0074   -3.0547    5.5565 C.2       1 <0>         0.5657
     29 O3          6.0436   -2.3589    5.8457 O.co2     1 <0>        -0.7012
     30 O4          7.9036   -3.2272    6.3711 O.co2     1 <0>        -0.6785
     31 H1         -0.9595    1.9047    0.0451 H         1 <0>         0.1174
     32 H2         -0.6817   -0.1607    1.3543 H         1 <0>         0.1225
     33 H3          1.4646   -1.3645    1.3176 H         1 <0>         0.1391
     34 H4          3.0605    1.5812   -1.3398 H         1 <0>         0.1222
     35 H5          0.9101    2.7774   -1.2967 H         1 <0>         0.1206
     36 H6          4.4519   -0.1561   -0.1198 H         1 <0>         0.4074
     37 H7          5.6538   -2.1442    0.1387 H         1 <0>         0.4013
     38 H8          3.9794   -4.4580    0.8035 H         1 <0>         0.1047
     39 H9          3.0838   -4.1014   -2.1129 H         1 <0>         0.1231
     40 H10         3.6007   -5.3189   -4.1914 H         1 <0>         0.1191
     41 H11         5.6783   -6.6240   -4.3733 H         1 <0>         0.1204
     42 H12         7.2485   -6.7206   -2.4846 H         1 <0>         0.1294
     43 H13         5.2314   -3.0141    3.2533 H         1 <0>         0.1676
@<TRIPOS>BOND
     1    1    6 ar
     2    1    2 ar
     3    1   31 1
     4    2    3 ar
     5    2   32 1
     6    3    4 ar
     7    3   33 1
     8    4    5 ar
     9    4    7 1
    10    5    6 ar
    11    5   34 1
    12    6   35 1
    13    7    8 am
    14    7   36 1
    15    8    9 2
    16    8   10 am
    17   10   11 1
    18   10   37 1
    19   11   19 1
    20   11   12 1
    21   11   38 1
    22   12   17 ar
    23   12   13 ar
    24   13   14 ar
    25   13   39 1
    26   14   15 ar
    27   14   40 1
    28   15   16 ar
    29   15   41 1
    30   16   17 ar
    31   16   42 1
    32   17   18 1
    33   18   26 1
    34   18   19 2
    35   19   20 1
    36   20   24 1
    37   20   21 1
    38   21   22 2
    39   21   43 1
    40   22   23 1
    41   22   28 1
    42   23   24 2
    43   24   25 1
    44   25   26 2
    45   25   27 1
    46   28   29 2
    47   28   30 1
@<TRIPOS>MOLECULE
CHEMBL128155
   40    43     0     0     0
SMALL
USER_CHARGES

@<TRIPOS>ATOM
      1 C1         -0.0251    0.8496    0.5418 C.2       1 <0>         0.0024
      2 C2          1.2395    1.0247    0.9703 C.2       1 <0>        -0.0595
      3 N1          2.0634    0.6256   -0.0501 N.pl3     1 <0>        -0.4439
      4 C3          1.2650    0.2188   -1.0708 C.2       1 <0>         0.2388
      5 N2          0.0197    0.3575   -0.7051 N.2       1 <0>        -0.4691
      6 C4          3.4661    0.6361   -0.0419 C.ar      1 <0>         0.2153
      7 C5          4.1575   -0.0782    0.9234 C.ar      1 <0>        -0.1205
      8 C6          5.5468   -0.0688    0.9320 C.ar      1 <0>         0.1699
      9 C7          6.2417    0.6625   -0.0340 C.ar      1 <0>         0.1386
     10 C8          5.5392    1.3767   -0.9987 C.ar      1 <0>        -0.0351
     11 C9          4.1603    1.3584   -1.0057 C.ar      1 <0>        -0.0291
     12 N3          3.4173    2.1153   -2.0383 N.pl3     1 <0>         0.0233
     13 O1          4.0138    2.6383   -2.9507 O.2       1 <0>        -0.1273
     14 O2          2.2141    2.2106   -1.9693 O.3       1 <0>        -0.1232
     15 N4          7.6342    0.6834   -0.0399 N.am      1 <0>        -0.6282
     16 H1          8.1080    1.1947   -0.7145 H         1 <0>         0.4386
     17 C10         8.3248   -0.0056    0.8909 C.2       1 <0>         0.5101
     18 O3          9.5394    0.0100    0.8900 O.2       1 <0>        -0.4301
     19 C11         7.5825   -0.7866    1.9219 C.2       1 <0>         0.5244
     20 O4          8.1864   -1.4134    2.7691 O.2       1 <0>        -0.4719
     21 N5          6.2342   -0.7889    1.9051 N.am      1 <0>        -0.5234
     22 C12         5.4916   -1.5504    2.9124 C.3       1 <0>         0.1069
     23 C13         5.8118   -1.0210    4.3291 C.3       1 <0>        -0.1600
     24 C14         5.8839   -2.3169    5.1752 C.3       1 <0>         0.0037
     25 N6          6.5273   -3.2886    4.2544 N.4       1 <0>        -0.5127
     26 C15         5.9523   -3.0198    2.9185 C.3       1 <0>        -0.0137
     27 H2         -0.9205    1.0640    1.1062 H         1 <0>         0.1803
     28 H3          1.5458    1.4063    1.9331 H         1 <0>         0.1793
     29 H4          1.6038   -0.1565   -2.0251 H         1 <0>         0.2024
     30 H5          3.6165   -0.6418    1.6691 H         1 <0>         0.1696
     31 H6          6.0747    1.9431   -1.7463 H         1 <0>         0.1854
     32 H7          4.4208   -1.4905    2.7176 H         1 <0>         0.1526
     33 H8          6.7693   -0.5002    4.3390 H         1 <0>         0.1108
     34 H9          5.0139   -0.3704    4.6872 H         1 <0>         0.1318
     35 H10         6.4978   -2.1633    6.0627 H         1 <0>         0.1471
     36 H11         4.8841   -2.6523    5.4511 H         1 <0>         0.1450
     37 H12         7.5258   -3.1445    4.2388 H         1 <0>         0.4409
     38 H13         5.1006   -3.6767    2.7418 H         1 <0>         0.1546
     39 H14         6.7098   -3.1747    2.1502 H         1 <0>         0.1372
     40 H15         6.3151   -4.2325    4.5410 H         1 <0>         0.4386
@<TRIPOS>BOND
     1    1    5 1
     2    1    2 2
     3    1   27 1
     4    2    3 1
     5    2   28 1
     6    3    4 1
     7    3    6 1
     8    4    5 2
     9    4   29 1
    10    6   11 ar
    11    6    7 ar
    12    7    8 ar
    13    7   30 1
    14    8   21 1
    15    8    9 ar
    16    9   10 ar
    17    9   15 1
    18   10   11 ar
    19   10   31 1
    20   11   12 1
    21   12   13 2
    22   12   14 1
    23   15   16 1
    24   15   17 am
    25   17   18 2
    26   17   19 1
    27   19   20 2
    28   19   21 am
    29   21   22 1
    30   22   26 1
    31   22   23 1
    32   22   32 1
    33   23   24 1
    34   23   33 1
    35   23   34 1
    36   24   25 1
    37   24   35 1
    38   24   36 1
    39   25   26 1
    40   25   37 1
    41   25   40 1
    42   26   38 1
    43   26   39 1
@<TRIPOS>MOLECULE
CHEMBL128155
   39    42     0     0     0
SMALL
USER_CHARGES

@<TRIPOS>ATOM
      1 C1         -0.0258    0.8664    0.5674 C.2       1 <0>        -0.0166
      2 C2          1.2408    1.0372    0.9912 C.2       1 <0>        -0.0571
      3 N1          2.0597    0.6375   -0.0334 N.pl3     1 <0>        -0.4199
      4 C3          1.2556    0.2347   -1.0519 C.2       1 <0>         0.2352
      5 N2          0.0125    0.3763   -0.6807 N.2       1 <0>        -0.4852
      6 C4          3.4601    0.6433   -0.0307 C.ar      1 <0>         0.1280
      7 C5          4.1501   -0.0731    0.9327 C.ar      1 <0>        -0.1065
      8 C6          5.5394   -0.0672    0.9346 C.ar      1 <0>         0.0735
      9 C7          6.2357    0.6672   -0.0433 C.ar      1 <0>         0.1950
     10 C8          5.5159    1.3857   -1.0097 C.ar      1 <0>        -0.0400
     11 C9          4.1526    1.3657   -1.0014 C.ar      1 <0>        -0.0238
     12 N3          3.4013    2.1221   -2.0283 N.pl3     1 <0>         0.0309
     13 O1          3.9908    2.6477   -2.9437 O.2       1 <0>        -0.1473
     14 O2          2.1983    2.2144   -1.9515 O.3       1 <0>        -0.1492
     15 N4          7.5840    0.6844   -0.0577 N.2       1 <0>        -0.5864
     16 C10         8.2759    0.0232    0.8319 C.2       1 <0>         0.4190
     17 O3          9.6303    0.0566    0.7966 O.3       1 <0>        -0.5893
     18 C11         7.5871   -0.7578    1.8729 C.2       1 <0>         0.4918
     19 O4          8.2263   -1.3760    2.7044 O.2       1 <0>        -0.5321
     20 N5          6.2365   -0.7802    1.8927 N.am      1 <0>        -0.5140
     21 C12         5.5208   -1.5474    2.9151 C.3       1 <0>         0.1082
     22 C13         5.8625   -1.0123    4.3247 C.3       1 <0>        -0.1585
     23 C14         5.9637   -2.3060    5.1712 C.3       1 <0>         0.0052
     24 N6          6.5993   -3.2728    4.2398 N.4       1 <0>        -0.5103
     25 C15         5.9963   -3.0121    2.9147 C.3       1 <0>        -0.0114
     26 H1         -0.9183    1.0824    1.1358 H         1 <0>         0.1716
     27 H2          1.5520    1.4165    1.9533 H         1 <0>         0.1711
     28 H3          1.5893   -0.1399   -2.0083 H         1 <0>         0.1956
     29 H4          3.6098   -0.6344    1.6806 H         1 <0>         0.1442
     30 H5          6.0424    1.9520   -1.7638 H         1 <0>         0.1719
     31 H6          4.4460   -1.4986    2.7406 H         1 <0>         0.1398
     32 H7          6.8147   -0.4819    4.3155 H         1 <0>         0.1112
     33 H8          5.0651   -0.3692    4.6969 H         1 <0>         0.1227
     34 H9          6.5928   -2.1447    6.0466 H         1 <0>         0.1403
     35 H10         4.9728   -2.6510    5.4666 H         1 <0>         0.1380
     36 H11         7.5958   -3.1187    4.2050 H         1 <0>         0.4420
     37 H12         5.1481   -3.6778    2.7552 H         1 <0>         0.1443
     38 H13         6.7406   -3.1606    2.1324 H         1 <0>         0.1372
     39 H14         6.4021   -4.2183    4.5318 H         1 <0>         0.4306
@<TRIPOS>BOND
     1    1    5 1
     2    1    2 2
     3    1   26 1
     4    2    3 1
     5    2   27 1
     6    3    4 1
     7    3    6 1
     8    4    5 2
     9    4   28 1
    10    6   11 ar
    11    6    7 ar
    12    7    8 ar
    13    7   29 1
    14    8   20 1
    15    8    9 ar
    16    9   10 ar
    17    9   15 1
    18   10   11 ar
    19   10   30 1
    20   11   12 1
    21   12   13 2
    22   12   14 1
    23   15   16 2
    24   16   17 1
    25   16   18 1
    26   18   19 2
    27   18   20 am
    28   20   21 1
    29   21   25 1
    30   21   22 1
    31   21   31 1
    32   22   23 1
    33   22   32 1
    34   22   33 1
    35   23   24 1
    36   23   34 1
    37   23   35 1
    38   24   25 1
    39   24   36 1
    40   24   39 1
    41   25   37 1
    42   25   38 1
@<TRIPOS>MOLECULE
CHEMBL128155
   40    43     0     0     0
SMALL
USER_CHARGES

@<TRIPOS>ATOM
      1 C1          0.7050   -2.0573   -1.4280 C.2       1 <0>         0.0023
      2 C2          1.5691   -1.4706   -0.5778 C.2       1 <0>        -0.0543
      3 N1          2.6650   -1.1045   -1.3155 N.pl3     1 <0>        -0.4388
      4 C3          2.4272   -1.4841   -2.5976 C.2       1 <0>         0.2170
      5 N2          1.2532   -2.0522   -2.6520 N.2       1 <0>        -0.4609
      6 C4          3.8146   -0.4588   -0.8366 C.ar      1 <0>         0.2148
      7 C5          4.4600   -0.9412    0.2906 C.ar      1 <0>        -0.1221
      8 C6          5.5989   -0.3027    0.7655 C.ar      1 <0>         0.1691
      9 C7          6.0890    0.8252    0.1032 C.ar      1 <0>         0.1383
     10 C8          5.4343    1.3025   -1.0271 C.ar      1 <0>        -0.0358
     11 C9          4.3078    0.6607   -1.4971 C.ar      1 <0>        -0.0270
     12 N3          3.6182    1.1690   -2.7042 N.pl3     1 <0>         0.0171
     13 O1          4.2559    1.6833   -3.5933 O.2       1 <0>        -0.1210
     14 O2          2.4171    1.0699   -2.8010 O.3       1 <0>        -0.1169
     15 N4          7.2290    1.4779    0.5656 N.am      1 <0>        -0.6281
     16 H1          7.5614    2.2609    0.0994 H         1 <0>         0.4382
     17 C10         7.8712    1.0233    1.6606 C.2       1 <0>         0.5100
     18 O3          8.8657    1.5895    2.0678 O.2       1 <0>        -0.4309
     19 C11         7.3480   -0.1813    2.3671 C.2       1 <0>         0.5233
     20 O4          7.9120   -0.6060    3.3555 O.2       1 <0>        -0.4694
     21 N5          6.2417   -0.7934    1.8985 N.am      1 <0>        -0.5220
     22 C12         5.7154   -1.9770    2.5830 C.3       1 <0>         0.1057
     23 C13         6.7336   -3.1377    2.5074 C.3       1 <0>        -0.1573
     24 C14         7.4710   -3.0409    3.8666 C.3       1 <0>        -0.0190
     25 N6          6.3911   -2.6602    4.8127 N.4       1 <0>        -0.5066
     26 C15         5.5414   -1.6918    4.0863 C.3       1 <0>        -0.0128
     27 H2         -0.2604   -2.4657   -1.1681 H         1 <0>         0.1830
     28 H3          1.4260   -1.3179    0.4817 H         1 <0>         0.1821
     29 H4          3.0972   -1.3401   -3.4324 H         1 <0>         0.2009
     30 H5          4.0776   -1.8132    0.8003 H         1 <0>         0.1693
     31 H6          5.8114    2.1747   -1.5404 H         1 <0>         0.1817
     32 H7          4.7645   -2.2765    2.1422 H         1 <0>         0.1515
     33 H8          6.2209   -4.0951    2.4141 H         1 <0>         0.1226
     34 H9          7.4279   -2.9886    1.6804 H         1 <0>         0.1224
     35 H10         7.9007   -4.0044    4.1407 H         1 <0>         0.1419
     36 H11         8.2415   -2.2706    3.8322 H         1 <0>         0.1661
     37 H12         5.8510   -3.4729    5.0694 H         1 <0>         0.4330
     38 H13         5.8623   -0.6746    4.3108 H         1 <0>         0.1388
     39 H14         4.4980   -1.8263    4.3714 H         1 <0>         0.1532
     40 H15         6.7853   -2.2287    5.6352 H         1 <0>         0.4408
@<TRIPOS>BOND
     1    1    5 1
     2    1    2 2
     3    1   27 1
     4    2    3 1
     5    2   28 1
     6    3    4 1
     7    3    6 1
     8    4    5 2
     9    4   29 1
    10    6   11 ar
    11    6    7 ar
    12    7    8 ar
    13    7   30 1
    14    8   21 1
    15    8    9 ar
    16    9   10 ar
    17    9   15 1
    18   10   11 ar
    19   10   31 1
    20   11   12 1
    21   12   13 2
    22   12   14 1
    23   15   16 1
    24   15   17 am
    25   17   18 2
    26   17   19 1
    27   19   20 2
    28   19   21 am
    29   21   22 1
    30   22   26 1
    31   22   23 1
    32   22   32 1
    33   23   24 1
    34   23   33 1
    35   23   34 1
    36   24   25 1
    37   24   35 1
    38   24   36 1
    39   25   26 1
    40   25   37 1
    41   25   40 1
    42   26   38 1
    43   26   39 1
@<TRIPOS>MOLECULE
CHEMBL128155
   39    42     0     0     0
SMALL
USER_CHARGES

@<TRIPOS>ATOM
      1 C1          0.8137   -2.0817   -1.6069 C.2       1 <0>        -0.0172
      2 C2          1.6351   -1.4897   -0.7193 C.2       1 <0>        -0.0496
      3 N1          2.7510   -1.0959   -1.4121 N.pl3     1 <0>        -0.4151
      4 C3          2.5670   -1.4655   -2.7066 C.2       1 <0>         0.2066
      5 N2          1.4064   -2.0532   -2.8099 N.2       1 <0>        -0.4761
      6 C4          3.8689   -0.4374   -0.8851 C.ar      1 <0>         0.1252
      7 C5          4.5004   -0.9437    0.2384 C.ar      1 <0>        -0.1057
      8 C6          5.6098   -0.2901    0.7605 C.ar      1 <0>         0.0712
      9 C7          6.0837    0.8824    0.1432 C.ar      1 <0>         0.1973
     10 C8          5.4281    1.3772   -0.9942 C.ar      1 <0>        -0.0437
     11 C9          4.3439    0.7214   -1.4976 C.ar      1 <0>        -0.0179
     12 N3          3.6617    1.2475   -2.7013 N.pl3     1 <0>         0.0249
     13 O1          4.3063    1.7639   -3.5843 O.2       1 <0>        -0.1415
     14 O2          2.4600    1.1609   -2.8015 O.3       1 <0>        -0.1403
     15 N4          7.1592    1.5302    0.6352 N.2       1 <0>        -0.5864
     16 C10         7.7861    1.0885    1.6932 C.2       1 <0>         0.4192
     17 O3          8.8645    1.7577    2.1688 O.3       1 <0>        -0.5895
     18 C11         7.3231   -0.1344    2.3699 C.2       1 <0>         0.4916
     19 O4          7.9031   -0.5509    3.3560 O.2       1 <0>        -0.5289
     20 N5          6.2468   -0.7889    1.8818 N.am      1 <0>        -0.5126
     21 C12         5.7608   -2.0085    2.5319 C.3       1 <0>         0.1067
     22 C13         6.8303   -3.1219    2.4519 C.3       1 <0>        -0.1540
     23 C14         7.5381   -3.0219    3.8265 C.3       1 <0>        -0.0200
     24 N6          6.4256   -2.7089    4.7596 N.4       1 <0>        -0.5040
     25 C15         5.5474   -1.7633    4.0371 C.3       1 <0>        -0.0109
     26 H1         -0.1532   -2.5098   -1.3872 H         1 <0>         0.1744
     27 H2          1.4503   -1.3512    0.3358 H         1 <0>         0.1742
     28 H3          3.2644   -1.3006   -3.5145 H         1 <0>         0.1949
     29 H4          4.1316   -1.8437    0.7077 H         1 <0>         0.1442
     30 H5          5.7852    2.2764   -1.4741 H         1 <0>         0.1672
     31 H6          4.8321   -2.3398    2.0672 H         1 <0>         0.1386
     32 H7          6.3620   -4.0985    2.3293 H         1 <0>         0.1101
     33 H8          7.5322   -2.9251    1.6414 H         1 <0>         0.1187
     34 H9          8.0047   -3.9713    4.0889 H         1 <0>         0.1317
     35 H10         8.2745   -2.2182    3.8225 H         1 <0>         0.1733
     36 H11         5.9173   -3.5496    4.9894 H         1 <0>         0.4247
     37 H12         5.8191   -0.7380    4.2885 H         1 <0>         0.1392
     38 H13         4.5059   -1.9492    4.2996 H         1 <0>         0.1428
     39 H14         6.7855   -2.2782    5.5980 H         1 <0>         0.4362
@<TRIPOS>BOND
     1    1    5 1
     2    1    2 2
     3    1   26 1
     4    2    3 1
     5    2   27 1
     6    3    4 1
     7    3    6 1
     8    4    5 2
     9    4   28 1
    10    6   11 ar
    11    6    7 ar
    12    7    8 ar
    13    7   29 1
    14    8   20 1
    15    8    9 ar
    16    9   10 ar
    17    9   15 1
    18   10   11 ar
    19   10   30 1
    20   11   12 1
    21   12   13 2
    22   12   14 1
    23   15   16 2
    24   16   17 1
    25   16   18 1
    26   18   19 2
    27   18   20 am
    28   20   21 1
    29   21   25 1
    30   21   22 1
    31   21   31 1
    32   22   23 1
    33   22   32 1
    34   22   33 1
    35   23   24 1
    36   23   34 1
    37   23   35 1
    38   24   25 1
    39   24   36 1
    40   24   39 1
    41   25   37 1
    42   25   38 1
@<TRIPOS>MOLECULE
CHEMBL192253
   82    83     0     0     0
SMALL
USER_CHARGES

@<TRIPOS>ATOM
      1 C1         -0.0187    1.5258    0.0104 C.3       1 <0>        -0.1559
      2 C2          0.0021   -0.0041    0.0020 C.3       1 <0>        -0.1076
      3 C3          0.7182   -0.4975   -1.2568 C.3       1 <0>        -0.1366
      4 C4          0.7386   -2.0043   -1.2651 C.2       1 <0>         0.5423
      5 O1          0.2305   -2.6227   -0.3539 O.2       1 <0>        -0.5340
      6 N1          1.3217   -2.6648   -2.2851 N.am      1 <0>        -0.6034
      7 C5          1.9794   -2.0415   -3.4480 C.3       1 <0>         0.0760
      8 C6          2.9794   -3.1093   -3.9574 C.3       1 <0>         0.0781
      9 H1          3.8956   -3.0996   -3.3671 H         1 <0>         0.0827
     10 C7          2.1816   -4.4195   -3.7245 C.3       1 <0>        -0.1154
     11 C8          1.4126   -4.1260   -2.4191 C.3       1 <0>         0.1231
     12 H2          0.4127   -4.5561   -2.4755 H         1 <0>         0.1045
     13 C9          2.1563   -4.7033   -1.2423 C.2       1 <0>         0.5167
     14 O2          2.8558   -3.9880   -0.5569 O.2       1 <0>        -0.5085
     15 N2          2.0440   -6.0146   -0.9517 N.am      1 <0>        -0.7386
     16 C10         2.7669   -6.5758    0.1923 C.3       1 <0>         0.1251
     17 C11         2.4688   -8.0726    0.2995 C.3       1 <0>        -0.1644
     18 C12         3.2238   -8.6587    1.4942 C.3       1 <0>        -0.0055
     19 N3          2.9376  -10.0959    1.5971 N.4       1 <0>        -0.5095
     20 C13         3.6625  -10.6586    2.7442 C.3       1 <0>        -0.0098
     21 C14         3.3644  -12.1555    2.8514 C.3       1 <0>        -0.1500
     22 C15         4.1193  -12.7416    4.0461 C.3       1 <0>        -0.1502
     23 C16         3.8213  -14.2385    4.1533 C.3       1 <0>        -0.0099
     24 N4          4.5461  -14.8012    5.3004 N.4       1 <0>        -0.5105
     25 C17         4.2599  -16.2384    5.4033 C.3       1 <0>        -0.0048
     26 C18         5.0149  -16.8245    6.5980 C.3       1 <0>        -0.1881
     27 C19         4.7168  -18.3213    6.7052 C.3       1 <0>        -0.0023
     28 N5          5.4417  -18.8841    7.8523 N.4       1 <0>        -0.6386
     29 O3          3.2653   -2.9226   -5.3450 O.3       1 <0>        -0.3602
     30 C20         4.3977   -2.0885   -5.5980 C.3       1 <0>         0.1038
     31 C21         4.6056   -1.9614   -7.0852 C.ar      1 <0>        -0.1006
     32 C22         5.4089   -2.8683   -7.7508 C.ar      1 <0>        -0.0997
     33 C23         5.5997   -2.7517   -9.1149 C.ar      1 <0>        -0.1230
     34 C24         4.9868   -1.7284   -9.8136 C.ar      1 <0>        -0.1074
     35 C25         4.1828   -0.8220   -9.1481 C.ar      1 <0>        -0.1201
     36 C26         3.9886   -0.9411   -7.7847 C.ar      1 <0>        -0.0964
     37 H3          1.0039    1.9031    0.0027 H         1 <0>         0.0561
     38 H4         -0.5459    1.8868   -0.8726 H         1 <0>         0.0578
     39 H5         -0.5289    1.8773    0.9072 H         1 <0>         0.0614
     40 H6          0.5293   -0.3651    0.8851 H         1 <0>         0.0671
     41 H7         -1.0205   -0.3814    0.0098 H         1 <0>         0.0692
     42 H8          0.1910   -0.1364   -2.1398 H         1 <0>         0.0979
     43 H9          1.7408   -0.1202   -1.2645 H         1 <0>         0.0960
     44 H10         1.2455   -1.8102   -4.2200 H         1 <0>         0.0907
     45 H11         2.5099   -1.1388   -3.1451 H         1 <0>         0.0871
     46 H12         1.4928   -4.6034   -4.5490 H         1 <0>         0.1077
     47 H13         2.8576   -5.2638   -3.5896 H         1 <0>         0.0886
     48 H14         1.4845   -6.5867   -1.4999 H         1 <0>         0.4038
     49 H15         3.8378   -6.4276    0.0535 H         1 <0>         0.0772
     50 H16         2.4462   -6.0751    1.1059 H         1 <0>         0.0782
     51 H17         1.3979   -8.2208    0.4383 H         1 <0>         0.0978
     52 H18         2.7895   -8.5733   -0.6141 H         1 <0>         0.0975
     53 H19         4.2947   -8.5106    1.3554 H         1 <0>         0.1392
     54 H20         2.9031   -8.1581    2.4078 H         1 <0>         0.1396
     55 H21         1.9462  -10.2331    1.7256 H         1 <0>         0.4319
     56 H22         4.7334  -10.5105    2.6054 H         1 <0>         0.1372
     57 H23         3.3418  -10.1580    3.6578 H         1 <0>         0.1374
     58 H24         2.2934  -12.3037    2.9901 H         1 <0>         0.1011
     59 H25         3.6851  -12.6562    1.9378 H         1 <0>         0.1010
     60 H26         5.1903  -12.5934    3.9073 H         1 <0>         0.1017
     61 H27         3.7987  -12.2410    4.9597 H         1 <0>         0.1018
     62 H28         2.7503  -14.3866    4.2920 H         1 <0>         0.1403
     63 H29         4.1419  -14.7391    3.2397 H         1 <0>         0.1402
     64 H30         5.5375  -14.6640    5.1719 H         1 <0>         0.4344
     65 H31         3.1890  -16.3865    5.5420 H         1 <0>         0.1457
     66 H32         4.5806  -16.7390    4.4897 H         1 <0>         0.1457
     67 H33         6.0858  -16.6763    6.4592 H         1 <0>         0.1137
     68 H34         4.6942  -16.3238    7.5116 H         1 <0>         0.1137
     69 H35         3.6459  -18.4695    6.8439 H         1 <0>         0.1458
     70 H36         5.0375  -18.8220    5.7916 H         1 <0>         0.1458
     71 H37         5.1448  -18.4206    8.6979 H         1 <0>         0.4411
     72 H38         5.2451  -19.8712    7.9229 H         1 <0>         0.4533
     73 H39         4.2247   -1.1013   -5.1696 H         1 <0>         0.0635
     74 H40         5.2840   -2.5315   -5.1438 H         1 <0>         0.0607
     75 H41         5.8878   -3.6678   -7.2050 H         1 <0>         0.1198
     76 H42         6.2279   -3.4599   -9.6348 H         1 <0>         0.1251
     77 H43         5.1364   -1.6369  -10.8792 H         1 <0>         0.1265
     78 H44         3.7042   -0.0223   -9.6939 H         1 <0>         0.1275
     79 H45         3.3574   -0.2352   -7.2654 H         1 <0>         0.1239
     80 H46         6.4331  -18.7469    7.7238 H         1 <0>         0.4411
     81 H47         3.2344  -10.5594    0.7514 H         1 <0>         0.4314
     82 H48         4.2493  -14.3377    6.1460 H         1 <0>         0.4345
@<TRIPOS>BOND
     1    1    2 1
     2    1   37 1
     3    1   38 1
     4    1   39 1
     5    2    3 1
     6    2   40 1
     7    2   41 1
     8    3    4 1
     9    3   42 1
    10    3   43 1
    11    4    5 2
    12    4    6 am
    13    6   11 1
    14    6    7 1
    15    7    8 1
    16    7   44 1
    17    7   45 1
    18    8    9 1
    19    8   10 1
    20    8   29 1
    21   10   11 1
    22   10   46 1
    23   10   47 1
    24   11   12 1
    25   11   13 1
    26   13   14 2
    27   13   15 am
    28   15   16 1
    29   15   48 1
    30   16   17 1
    31   16   49 1
    32   16   50 1
    33   17   18 1
    34   17   51 1
    35   17   52 1
    36   18   19 1
    37   18   53 1
    38   18   54 1
    39   19   20 1
    40   19   55 1
    41   19   81 1
    42   20   21 1
    43   20   56 1
    44   20   57 1
    45   21   22 1
    46   21   58 1
    47   21   59 1
    48   22   23 1
    49   22   60 1
    50   22   61 1
    51   23   24 1
    52   23   62 1
    53   23   63 1
    54   24   25 1
    55   24   64 1
    56   24   82 1
    57   25   26 1
    58   25   65 1
    59   25   66 1
    60   26   27 1
    61   26   67 1
    62   26   68 1
    63   27   28 1
    64   27   69 1
    65   27   70 1
    66   28   71 1
    67   28   72 1
    68   28   80 1
    69   29   30 1
    70   30   31 1
    71   30   73 1
    72   30   74 1
    73   31   36 ar
    74   31   32 ar
    75   32   33 ar
    76   32   75 1
    77   33   34 ar
    78   33   76 1
    79   34   35 ar
    80   34   77 1
    81   35   36 ar
    82   35   78 1
    83   36   79 1
@<TRIPOS>MOLECULE
CHEMBL192253
   81    82     0     0     0
SMALL
USER_CHARGES

@<TRIPOS>ATOM
      1 C1         -0.0187    1.5258    0.0104 C.3       1 <0>        -0.1555
      2 C2          0.0021   -0.0041    0.0020 C.3       1 <0>        -0.1080
      3 C3         -1.4333   -0.5336    0.0129 C.3       1 <0>        -0.1361
      4 C4         -1.4129   -2.0405    0.0046 C.2       1 <0>         0.5415
      5 O1         -0.3545   -2.6325   -0.0087 O.2       1 <0>        -0.5327
      6 N1         -2.5708   -2.7302    0.0119 N.am      1 <0>        -0.6034
      7 C5         -3.9220   -2.1406    0.0216 C.3       1 <0>         0.0766
      8 C6         -4.8359   -3.2338   -0.5861 C.3       1 <0>         0.0780
      9 H1         -4.7830   -3.2266   -1.6748 H         1 <0>         0.0831
     10 C7         -4.2027   -4.5265   -0.0070 C.3       1 <0>        -0.1154
     11 C8         -2.6956   -4.1951    0.0053 C.3       1 <0>         0.1230
     12 H2         -2.2340   -4.6106    0.9010 H         1 <0>         0.1046
     13 C9         -2.0339   -4.7603   -1.2251 C.2       1 <0>         0.5162
     14 O2         -1.8079   -4.0423   -2.1761 O.2       1 <0>        -0.5095
     15 N2         -1.6931   -6.0635   -1.2686 N.am      1 <0>        -0.7376
     16 C10        -1.0498   -6.6129   -2.4646 C.3       1 <0>         0.1250
     17 C11        -0.7705   -8.1025   -2.2548 C.3       1 <0>        -0.1642
     18 C12        -0.0987   -8.6763   -3.5039 C.3       1 <0>        -0.0055
     19 N3          0.1695  -10.1065   -3.3024 N.4       1 <0>        -0.5093
     20 C13         0.8146  -10.6574   -4.5018 C.3       1 <0>        -0.0098
     21 C14         1.0939  -12.1470   -4.2919 C.3       1 <0>        -0.1491
     22 C15         1.7658  -12.7208   -5.5411 C.3       1 <0>        -0.1498
     23 C16         2.0451  -14.2104   -5.3312 C.3       1 <0>        -0.0093
     24 N4          2.6901  -14.7613   -6.5305 N.4       1 <0>        -0.5096
     25 C17         2.9583  -16.1915   -6.3291 C.3       1 <0>        -0.0074
     26 C18         3.6302  -16.7653   -7.5782 C.3       1 <0>        -0.1522
     27 C19         3.9095  -18.2549   -7.3684 C.3       1 <0>         0.0630
     28 N5          4.5546  -18.8058   -8.5677 N.3       1 <0>        -0.8529
     29 O3         -6.1849   -3.0794   -0.1406 O.3       1 <0>        -0.3603
     30 C20        -6.9908   -2.2683   -0.9977 C.3       1 <0>         0.1034
     31 C21        -8.3855   -2.1741   -0.4347 C.ar      1 <0>        -0.0996
     32 C22        -9.3405   -3.1066   -0.7945 C.ar      1 <0>        -0.0993
     33 C23       -10.6199   -3.0203   -0.2781 C.ar      1 <0>        -0.1229
     34 C24       -10.9442   -2.0017    0.5984 C.ar      1 <0>        -0.1081
     35 C25        -9.9890   -1.0698    0.9589 C.ar      1 <0>        -0.1207
     36 C26        -8.7084   -1.1586    0.4458 C.ar      1 <0>        -0.0967
     37 H3          1.0039    1.9031    0.0027 H         1 <0>         0.0611
     38 H4         -0.5459    1.8868   -0.8726 H         1 <0>         0.0559
     39 H5         -0.5289    1.8773    0.9072 H         1 <0>         0.0572
     40 H6          0.5123   -0.3556   -0.8948 H         1 <0>         0.0677
     41 H7          0.5293   -0.3651    0.8851 H         1 <0>         0.0693
     42 H8         -1.9435   -0.1821    0.9097 H         1 <0>         0.0972
     43 H9         -1.9605   -0.1726   -0.8702 H         1 <0>         0.0957
     44 H10        -4.2294   -1.9134    1.0423 H         1 <0>         0.0900
     45 H11        -3.9475   -1.2404   -0.5925 H         1 <0>         0.0865
     46 H12        -4.5678   -4.7161    1.0023 H         1 <0>         0.1073
     47 H13        -4.4026   -5.3784   -0.6570 H         1 <0>         0.0892
     48 H14        -1.8739   -6.6377   -0.5079 H         1 <0>         0.4037
     49 H15        -1.7089   -6.4843   -3.3232 H         1 <0>         0.0774
     50 H16        -0.1112   -6.0892   -2.6454 H         1 <0>         0.0784
     51 H17        -0.1115   -8.2312   -1.3962 H         1 <0>         0.0975
     52 H18        -1.7092   -8.6263   -2.0740 H         1 <0>         0.0971
     53 H19        -0.7577   -8.5476   -4.3625 H         1 <0>         0.1387
     54 H20         0.8400   -8.1526   -3.6847 H         1 <0>         0.1391
     55 H21         0.7796  -10.2256   -2.5076 H         1 <0>         0.4315
     56 H22         0.1555  -10.5288   -5.3604 H         1 <0>         0.1370
     57 H23         1.7533  -10.1337   -4.6825 H         1 <0>         0.1373
     58 H24         1.7530  -12.2757   -3.4333 H         1 <0>         0.1002
     59 H25         0.1552  -12.6708   -4.1112 H         1 <0>         0.0998
     60 H26         1.1067  -12.5921   -6.3997 H         1 <0>         0.0999
     61 H27         2.7044  -12.1970   -5.7218 H         1 <0>         0.1005
     62 H28         2.7041  -14.3390   -4.4726 H         1 <0>         0.1364
     63 H29         1.1064  -14.7341   -5.1505 H         1 <0>         0.1357
     64 H30         2.0801  -14.6422   -7.3254 H         1 <0>         0.4306
     65 H31         3.6174  -16.3202   -5.4705 H         1 <0>         0.1359
     66 H32         2.0197  -16.7152   -6.1483 H         1 <0>         0.1335
     67 H33         2.9711  -16.6366   -8.4368 H         1 <0>         0.0868
     68 H34         4.5689  -16.2415   -7.7590 H         1 <0>         0.0979
     69 H35         4.5686  -18.3835   -6.5098 H         1 <0>         0.0834
     70 H36         2.9708  -18.7786   -7.1876 H         1 <0>         0.0383
     71 H37         4.7495  -19.7892   -8.4540 H         1 <0>         0.3609
     72 H38        -6.5582   -1.2701   -1.0655 H         1 <0>         0.0632
     73 H39        -7.0293   -2.7158   -1.9908 H         1 <0>         0.0610
     74 H40        -9.0871   -3.9024   -1.4793 H         1 <0>         0.1204
     75 H41       -11.3661   -3.7484   -0.5597 H         1 <0>         0.1251
     76 H42       -11.9439   -1.9339    1.0013 H         1 <0>         0.1260
     77 H43       -10.2424   -0.2738    1.6434 H         1 <0>         0.1269
     78 H44        -7.9611   -0.4327    0.7303 H         1 <0>         0.1237
     79 H45         3.9918  -18.6413   -9.3889 H         1 <0>         0.3468
     80 H46        -0.6994  -10.5913   -3.1351 H         1 <0>         0.4309
     81 H47         3.5591  -14.2765   -6.6979 H         1 <0>         0.4318
@<TRIPOS>BOND
     1    1    2 1
     2    1   37 1
     3    1   38 1
     4    1   39 1
     5    2    3 1
     6    2   40 1
     7    2   41 1
     8    3    4 1
     9    3   42 1
    10    3   43 1
    11    4    5 2
    12    4    6 am
    13    6   11 1
    14    6    7 1
    15    7    8 1
    16    7   44 1
    17    7   45 1
    18    8    9 1
    19    8   10 1
    20    8   29 1
    21   10   11 1
    22   10   46 1
    23   10   47 1
    24   11   12 1
    25   11   13 1
    26   13   14 2
    27   13   15 am
    28   15   16 1
    29   15   48 1
    30   16   17 1
    31   16   49 1
    32   16   50 1
    33   17   18 1
    34   17   51 1
    35   17   52 1
    36   18   19 1
    37   18   53 1
    38   18   54 1
    39   19   20 1
    40   19   55 1
    41   19   80 1
    42   20   21 1
    43   20   56 1
    44   20   57 1
    45   21   22 1
    46   21   58 1
    47   21   59 1
    48   22   23 1
    49   22   60 1
    50   22   61 1
    51   23   24 1
    52   23   62 1
    53   23   63 1
    54   24   25 1
    55   24   64 1
    56   24   81 1
    57   25   26 1
    58   25   65 1
    59   25   66 1
    60   26   27 1
    61   26   67 1
    62   26   68 1
    63   27   28 1
    64   27   69 1
    65   27   70 1
    66   28   71 1
    67   28   79 1
    68   29   30 1
    69   30   31 1
    70   30   72 1
    71   30   73 1
    72   31   36 ar
    73   31   32 ar
    74   32   33 ar
    75   32   74 1
    76   33   34 ar
    77   33   75 1
    78   34   35 ar
    79   34   76 1
    80   35   36 ar
    81   35   77 1
    82   36   78 1
@<TRIPOS>MOLECULE
CHEMBL90251
   34    37     0     0     0
SMALL
USER_CHARGES

@<TRIPOS>ATOM
      1 C1          0.0214    0.3268   -0.7686 C.2       1 <0>        -0.1364
      2 C2          1.3215    0.2521   -1.1003 C.2       1 <0>        -0.0115
      3 N1          2.0769    0.7033   -0.0544 N.pl3     1 <0>        -0.4214
      4 C3          1.2848    1.0767    0.9690 C.2       1 <0>         0.0153
      5 C4         -0.0281    0.8691    0.5952 C.2       1 <0>        -0.1855
      6 C5         -1.2283    1.1367    1.3970 C.2       1 <0>         0.5475
      7 O1         -2.3374    0.9032    0.9351 O.co2     1 <0>        -0.6954
      8 O2         -1.1198    1.5932    2.5274 O.co2     1 <0>        -0.6978
      9 C6          3.4778    0.7679   -0.0476 C.ar      1 <0>         0.2103
     10 C7          4.1971    0.0871    0.9216 C.ar      1 <0>        -0.0803
     11 C8          5.5848    0.1505    0.9283 C.ar      1 <0>         0.1763
     12 C9          6.2507    0.9012   -0.0424 C.ar      1 <0>         0.1474
     13 C10         5.5202    1.5816   -1.0110 C.ar      1 <0>        -0.0566
     14 C11         4.1433    1.5101   -1.0166 C.ar      1 <0>        -0.0318
     15 N2          3.3711    2.2312   -2.0534 N.pl3     1 <0>         0.0307
     16 O3          3.9469    2.7770   -2.9656 O.2       1 <0>        -0.1739
     17 O4          2.1647    2.2743   -1.9879 O.3       1 <0>        -0.1021
     18 N3          7.6415    0.9763   -0.0505 N.am      1 <0>        -0.6349
     19 C12         8.3631    0.3218    0.8820 C.2       1 <0>         0.6127
     20 C13         7.6669   -0.4734    1.9100 C.2       1 <0>         0.1292
     21 N4          6.3042   -0.5361    1.9054 N.pl3     1 <0>        -0.2541
     22 N5          5.9373   -1.2821    2.8899 N.2       1 <0>        -0.2435
     23 C14         7.0121   -1.7035    3.5315 C.2       1 <0>         0.1769
     24 N6          8.0926   -1.2007    2.9209 N.2       1 <0>        -0.3837
     25 C15         7.0207   -2.5806    4.7199 C.2       1 <0>         0.5755
     26 O5          5.9661   -2.9807    5.1922 O.co2     1 <0>        -0.6456
     27 O6          8.0824   -2.9066    5.2314 O.co2     1 <0>        -0.6465
     28 O7          9.5777    0.3865    0.8747 O.2       1 <0>        -0.4712
     29 H1         -0.8205    0.0476   -1.3847 H         1 <0>         0.1437
     30 H2          1.7078   -0.1070   -2.0427 H         1 <0>         0.1474
     31 H3          1.6188    1.4701    1.9177 H         1 <0>         0.1677
     32 H4          3.6791   -0.4922    1.6715 H         1 <0>         0.1814
     33 H5          6.0328    2.1633   -1.7628 H         1 <0>         0.1777
     34 H6          8.0929    1.5013   -0.7298 H         1 <0>         0.4324
@<TRIPOS>BOND
     1    1    5 1
     2    1    2 2
     3    1   29 1
     4    2    3 1
     5    2   30 1
     6    3    4 1
     7    3    9 1
     8    4    5 2
     9    4   31 1
    10    5    6 1
    11    6    7 2
    12    6    8 1
    13    9   14 ar
    14    9   10 ar
    15   10   11 ar
    16   10   32 1
    17   11   21 1
    18   11   12 ar
    19   12   13 ar
    20   12   18 1
    21   13   14 ar
    22   13   33 1
    23   14   15 1
    24   15   16 2
    25   15   17 1
    26   18   19 am
    27   18   34 1
    28   19   20 1
    29   19   28 2
    30   20   24 2
    31   20   21 1
    32   21   22 1
    33   22   23 2
    34   23   24 1
    35   23   25 1
    36   25   26 2
    37   25   27 1
@<TRIPOS>MOLECULE
CHEMBL128157
   26    28     0     0     0
SMALL
USER_CHARGES

@<TRIPOS>ATOM
      1 C1         -0.0820    1.2113    0.0828 C.ar      1 <0>        -0.0315
      2 C2          1.0236    2.0568    0.1179 C.ar      1 <0>         0.0746
      3 C3          2.3219    1.5175    0.0261 C.ar      1 <0>         0.1131
      4 C4          2.4845    0.1310   -0.1003 C.ar      1 <0>        -0.1060
      5 C5          1.3720   -0.6847   -0.1330 C.ar      1 <0>         0.2084
      6 C6          0.0916   -0.1375   -0.0403 C.ar      1 <0>        -0.0668
      7 N1         -1.0902   -1.0280   -0.0767 N.pl3     1 <0>         0.0425
      8 O1         -1.1971   -1.8551   -0.9520 O.2       1 <0>        -0.0986
      9 O2         -1.9484   -0.9284    0.7690 O.3       1 <0>        -0.1850
     10 N2          1.5291   -2.0725   -0.2599 N.pl3     1 <0>        -0.3427
     11 C7          2.6792   -2.7384   -0.4801 C.2       1 <0>         0.2743
     12 N3          2.4033   -4.0164   -0.5345 N.2       1 <0>        -0.5341
     13 C8          1.0965   -4.2051   -0.3549 C.2       1 <0>         0.2108
     14 N4          0.5195   -3.0453   -0.1766 N.2       1 <0>        -0.2948
     15 N5          3.3926    2.3356    0.0610 N.pl3     1 <0>        -0.1062
     16 C9          3.2362    3.6402    0.1810 C.2       1 <0>         0.3226
     17 O3          4.3308    4.4455    0.2143 O.3       1 <0>        -0.5483
     18 C10         1.9620    4.2065    0.2738 C.2       1 <0>         0.4728
     19 O4          1.8272    5.5429    0.3949 O.3       1 <0>        -0.5541
     20 N6          0.8658    3.4195    0.2421 N.pl3     1 <0>        -0.5740
     21 H1         -0.0207    3.8082    0.3062 H         1 <0>         0.4244
     22 O5          4.5138    1.8665   -0.0185 O.2       1 <0>        -0.4866
     23 H2         -1.0779    1.6224    0.1574 H         1 <0>         0.1597
     24 H3          3.4739   -0.2960   -0.1720 H         1 <0>         0.1723
     25 H4          3.6576   -2.2951   -0.5926 H         1 <0>         0.2286
     26 H5          0.5955   -5.1619   -0.3524 H         1 <0>         0.2247
@<TRIPOS>BOND
     1    1    6 ar
     2    1    2 ar
     3    1   23 1
     4    2   20 1
     5    2    3 ar
     6    3    4 ar
     7    3   15 1
     8    4    5 ar
     9    4   24 1
    10    5    6 ar
    11    5   10 1
    12    6    7 1
    13    7    8 2
    14    7    9 1
    15   10   14 1
    16   10   11 1
    17   11   12 2
    18   11   25 1
    19   12   13 1
    20   13   14 2
    21   13   26 1
    22   15   16 1
    23   15   22 2
    24   16   17 1
    25   16   18 2
    26   18   19 1
    27   18   20 1
    28   20   21 1
@<TRIPOS>MOLECULE
CHEMBL22366
   81    84     0     0     0
SMALL
USER_CHARGES

@<TRIPOS>ATOM
      1 C1         -0.0164    1.3567    0.0095 C.ar      1 <0>        -0.1174
      2 C2          1.1685    2.0906    0.0021 C.ar      1 <0>        -0.1057
      3 C3          2.3785    1.4679   -0.0132 C.ar      1 <0>        -0.1172
      4 C4          2.4378    0.0637   -0.0214 C.ar      1 <0>        -0.0324
      5 C5          1.2328   -0.6827   -0.0134 C.ar      1 <0>        -0.0524
      6 C6          0.0021   -0.0041    0.0020 C.ar      1 <0>        -0.0980
      7 C7          1.2920   -2.0865   -0.0210 C.ar      1 <0>        -0.0924
      8 C8          2.5022   -2.7094   -0.0359 C.ar      1 <0>        -0.1204
      9 C9          3.6867   -1.9757   -0.0433 C.ar      1 <0>        -0.0969
     10 C10         3.6681   -0.6146   -0.0367 C.ar      1 <0>        -0.0721
     11 C11         4.9603    0.1606   -0.0459 C.3       1 <0>        -0.0986
     12 C12         5.3414    0.5186    1.3675 C.2       1 <0>         0.5191
     13 O1          4.6334    0.1777    2.2913 O.2       1 <0>        -0.5072
     14 N1          6.4691    1.2175    1.6049 N.am      1 <0>        -0.6257
     15 C13         7.3338    1.6427    0.4958 C.3       1 <0>         0.1033
     16 C14         8.7613    1.1593    0.7702 C.3       1 <0>        -0.1287
     17 C15         9.2100    1.6607    2.1448 C.3       1 <0>        -0.1151
     18 C16         8.2897    1.0865    3.2244 C.3       1 <0>        -0.1428
     19 C17         6.8539    1.5739    2.9774 C.3       1 <0>         0.1107
     20 C18        10.6479    1.2089    2.4077 C.3       1 <0>        -0.0059
     21 N2         11.1201    1.7892    3.6719 N.4       1 <0>        -0.5118
     22 C19        12.5007    1.3554    3.9244 C.3       1 <0>        -0.0097
     23 C20        12.9925    1.9599    5.2411 C.3       1 <0>        -0.1505
     24 C21        14.4304    1.5081    5.5040 C.3       1 <0>        -0.1500
     25 C22        14.9222    2.1125    6.8207 C.3       1 <0>        -0.0103
     26 N3         16.3028    1.6787    7.0732 N.4       1 <0>        -0.5046
     27 C23        16.7750    2.2591    8.3374 C.3       1 <0>        -0.0370
     28 C24        18.2129    1.8073    8.6003 C.3       1 <0>        -0.0380
     29 N4         18.6851    2.3876    9.8645 N.4       1 <0>        -0.3792
     30 C25        18.7452    3.8488    9.7382 C.3       1 <0>        -0.0166
     31 C26        19.1587    4.4637   11.0770 C.3       1 <0>        -0.1478
     32 C27        20.5366    3.9271   11.4751 C.3       1 <0>        -0.1445
     33 C28        20.4812    2.3977   11.5314 C.3       1 <0>        -0.1488
     34 C29        20.0188    1.8593   10.1758 C.3       1 <0>        -0.0073
     35 H1         -0.9634    1.8756    0.0259 H         1 <0>         0.1275
     36 H2          1.1258    3.1698    0.0084 H         1 <0>         0.1234
     37 H3          3.2883    2.0497   -0.0195 H         1 <0>         0.1158
     38 H4         -0.9241   -0.5595    0.0082 H         1 <0>         0.1316
     39 H5          0.3820   -2.6682   -0.0147 H         1 <0>         0.1315
     40 H6          2.5450   -3.7886   -0.0417 H         1 <0>         0.1266
     41 H7          4.6338   -2.4947   -0.0548 H         1 <0>         0.1179
     42 H8          5.7467   -0.4491   -0.4909 H         1 <0>         0.1045
     43 H9          4.8331    1.0722   -0.6299 H         1 <0>         0.1068
     44 H10         6.9734    1.2073   -0.4362 H         1 <0>         0.1016
     45 H11         7.3242    2.7301    0.4212 H         1 <0>         0.0779
     46 H12         8.7858    0.0697    0.7546 H         1 <0>         0.0826
     47 H13         9.4312    1.5498    0.0041 H         1 <0>         0.0913
     48 H14         9.1617    2.7494    2.1678 H         1 <0>         0.1001
     49 H15         8.3186   -0.0024    3.1857 H         1 <0>         0.0852
     50 H16         8.6239    1.4251    4.2051 H         1 <0>         0.0647
     51 H17         6.8060    2.6558    3.1010 H         1 <0>         0.0721
     52 H18         6.1767    1.0931    3.6833 H         1 <0>         0.1037
     53 H19        10.6810    0.1213    2.4725 H         1 <0>         0.1358
     54 H20        11.2889    1.5440    1.5923 H         1 <0>         0.1381
     55 H21        11.0895    2.7960    3.6120 H         1 <0>         0.4309
     56 H22        12.5338    0.2679    3.9891 H         1 <0>         0.1367
     57 H23        13.1417    1.6906    3.1090 H         1 <0>         0.1375
     58 H24        12.9594    3.0474    5.1764 H         1 <0>         0.1015
     59 H25        12.3515    1.6248    6.0565 H         1 <0>         0.1011
     60 H26        14.4635    0.4205    5.5687 H         1 <0>         0.1037
     61 H27        15.0714    1.8432    4.6886 H         1 <0>         0.1037
     62 H28        14.8892    3.2001    6.7560 H         1 <0>         0.1427
     63 H29        14.2812    1.7774    7.6362 H         1 <0>         0.1431
     64 H30        16.3334    0.6720    7.1331 H         1 <0>         0.4394
     65 H31        16.7420    3.3466    8.2727 H         1 <0>         0.1551
     66 H32        16.1340    1.9240    9.1528 H         1 <0>         0.1566
     67 H33        18.2460    0.7197    8.6650 H         1 <0>         0.1544
     68 H34        18.8539    2.1424    7.7849 H         1 <0>         0.1529
     69 H35        19.4753    4.1172    8.9746 H         1 <0>         0.1376
     70 H36        17.7647    4.2289    9.4517 H         1 <0>         0.1252
     71 H37        19.2045    5.5485   10.9806 H         1 <0>         0.1207
     72 H38        18.4291    4.1960   11.8413 H         1 <0>         0.0923
     73 H39        21.2761    4.2381   10.7372 H         1 <0>         0.0864
     74 H40        20.8109    4.3182   12.4549 H         1 <0>         0.1040
     75 H41        21.4723    2.0058   11.7598 H         1 <0>         0.1233
     76 H42        19.7791    2.0872   12.3051 H         1 <0>         0.0925
     77 H43        19.9784    0.7707   10.2123 H         1 <0>         0.1373
     78 H44        20.7217    2.1702    9.4029 H         1 <0>         0.1362
     79 H45        10.5267    1.4790    4.4268 H         1 <0>         0.4293
     80 H46        16.8962    1.9890    6.3184 H         1 <0>         0.4391
     81 H47        18.0459    2.1421   10.6056 H         1 <0>         0.4297
@<TRIPOS>BOND
     1    1    6 ar
     2    1    2 ar
     3    1   35 1
     4    2    3 ar
     5    2   36 1
     6    3    4 ar
     7    3   37 1
     8    4   10 ar
     9    4    5 ar
    10    5    6 ar
    11    5    7 ar
    12    6   38 1
    13    7    8 ar
    14    7   39 1
    15    8    9 ar
    16    8   40 1
    17    9   10 ar
    18    9   41 1
    19   10   11 1
    20   11   12 1
    21   11   42 1
    22   11   43 1
    23   12   13 2
    24   12   14 am
    25   14   19 1
    26   14   15 1
    27   15   16 1
    28   15   44 1
    29   15   45 1
    30   16   17 1
    31   16   46 1
    32   16   47 1
    33   17   18 1
    34   17   20 1
    35   17   48 1
    36   18   19 1
    37   18   49 1
    38   18   50 1
    39   19   51 1
    40   19   52 1
    41   20   21 1
    42   20   53 1
    43   20   54 1
    44   21   22 1
    45   21   55 1
    46   21   79 1
    47   22   23 1
    48   22   56 1
    49   22   57 1
    50   23   24 1
    51   23   58 1
    52   23   59 1
    53   24   25 1
    54   24   60 1
    55   24   61 1
    56   25   26 1
    57   25   62 1
    58   25   63 1
    59   26   27 1
    60   26   64 1
    61   26   80 1
    62   27   28 1
    63   27   65 1
    64   27   66 1
    65   28   29 1
    66   28   67 1
    67   28   68 1
    68   29   34 1
    69   29   30 1
    70   29   81 1
    71   30   31 1
    72   30   69 1
    73   30   70 1
    74   31   32 1
    75   31   71 1
    76   31   72 1
    77   32   33 1
    78   32   73 1
    79   32   74 1
    80   33   34 1
    81   33   75 1
    82   33   76 1
    83   34   77 1
    84   34   78 1
@<TRIPOS>MOLECULE
CHEMBL22366
   80    83     0     0     0
SMALL
USER_CHARGES

@<TRIPOS>ATOM
      1 C1         -0.0164    1.3567    0.0095 C.ar      1 <0>        -0.1176
      2 C2          1.1685    2.0906    0.0021 C.ar      1 <0>        -0.1076
      3 C3          2.3785    1.4679   -0.0132 C.ar      1 <0>        -0.1147
      4 C4          2.4378    0.0637   -0.0214 C.ar      1 <0>        -0.0327
      5 C5          1.2328   -0.6827   -0.0134 C.ar      1 <0>        -0.0522
      6 C6          0.0021   -0.0041    0.0020 C.ar      1 <0>        -0.0995
      7 C7          1.2920   -2.0865   -0.0210 C.ar      1 <0>        -0.0952
      8 C8          2.5022   -2.7094   -0.0359 C.ar      1 <0>        -0.1188
      9 C9          3.6867   -1.9757   -0.0433 C.ar      1 <0>        -0.0979
     10 C10         3.6681   -0.6146   -0.0367 C.ar      1 <0>        -0.0687
     11 C11         4.9603    0.1606   -0.0459 C.3       1 <0>        -0.0997
     12 C12         5.3414    0.5186    1.3675 C.2       1 <0>         0.5189
     13 O1          4.6334    0.1777    2.2913 O.2       1 <0>        -0.5102
     14 N1          6.4691    1.2175    1.6049 N.am      1 <0>        -0.6241
     15 C13         7.3338    1.6427    0.4958 C.3       1 <0>         0.1037
     16 C14         8.7613    1.1593    0.7702 C.3       1 <0>        -0.1285
     17 C15         9.2100    1.6607    2.1448 C.3       1 <0>        -0.1149
     18 C16         8.2897    1.0865    3.2244 C.3       1 <0>        -0.1439
     19 C17         6.8539    1.5739    2.9774 C.3       1 <0>         0.1114
     20 C18        10.6479    1.2089    2.4077 C.3       1 <0>        -0.0057
     21 N2         11.1201    1.7892    3.6719 N.4       1 <0>        -0.5114
     22 C19        12.5007    1.3554    3.9244 C.3       1 <0>        -0.0087
     23 C20        12.9925    1.9599    5.2411 C.3       1 <0>        -0.1496
     24 C21        14.4304    1.5081    5.5040 C.3       1 <0>        -0.1181
     25 C22        14.9222    2.1125    6.8207 C.3       1 <0>         0.0578
     26 N3         16.3028    1.6787    7.0732 N.3       1 <0>        -0.6830
     27 C23        16.8095    2.2411    8.3322 C.3       1 <0>         0.0319
     28 C24        18.2465    1.7681    8.5602 C.3       1 <0>        -0.0100
     29 N4         18.7532    2.3305    9.8192 N.4       1 <0>        -0.3812
     30 C25        18.8300    3.7918    9.7047 C.3       1 <0>        -0.0108
     31 C26        19.2799    4.3889   11.0398 C.3       1 <0>        -0.1465
     32 C27        20.6588    3.8306   11.4036 C.3       1 <0>        -0.1408
     33 C28        20.5843    2.3017   11.4473 C.3       1 <0>        -0.1470
     34 C29        20.0860    1.7819   10.0971 C.3       1 <0>        -0.0056
     35 H1         -0.9634    1.8756    0.0259 H         1 <0>         0.1264
     36 H2          1.1258    3.1698    0.0084 H         1 <0>         0.1231
     37 H3          3.2883    2.0497   -0.0195 H         1 <0>         0.1168
     38 H4         -0.9241   -0.5595    0.0082 H         1 <0>         0.1305
     39 H5          0.3820   -2.6682   -0.0147 H         1 <0>         0.1305
     40 H6          2.5450   -3.7886   -0.0417 H         1 <0>         0.1262
     41 H7          4.6338   -2.4947   -0.0548 H         1 <0>         0.1188
     42 H8          5.7467   -0.4491   -0.4909 H         1 <0>         0.1049
     43 H9          4.8331    1.0722   -0.6299 H         1 <0>         0.1064
     44 H10         6.9734    1.2073   -0.4362 H         1 <0>         0.0995
     45 H11         7.3242    2.7301    0.4212 H         1 <0>         0.0775
     46 H12         8.7858    0.0697    0.7546 H         1 <0>         0.0819
     47 H13         9.4312    1.5498    0.0041 H         1 <0>         0.0911
     48 H14         9.1617    2.7494    2.1678 H         1 <0>         0.0992
     49 H15         8.3186   -0.0024    3.1857 H         1 <0>         0.0848
     50 H16         8.6239    1.4251    4.2051 H         1 <0>         0.0677
     51 H17         6.8060    2.6558    3.1010 H         1 <0>         0.0722
     52 H18         6.1767    1.0931    3.6833 H         1 <0>         0.1028
     53 H19        10.6810    0.1213    2.4725 H         1 <0>         0.1337
     54 H20        11.2889    1.5440    1.5923 H         1 <0>         0.1365
     55 H21        11.0895    2.7960    3.6120 H         1 <0>         0.4288
     56 H22        12.5338    0.2679    3.9891 H         1 <0>         0.1326
     57 H23        13.1417    1.6906    3.1090 H         1 <0>         0.1347
     58 H24        12.9594    3.0474    5.1764 H         1 <0>         0.0909
     59 H25        12.3515    1.6248    6.0565 H         1 <0>         0.0880
     60 H26        14.4635    0.4205    5.5687 H         1 <0>         0.0768
     61 H27        15.0714    1.8432    4.6886 H         1 <0>         0.0879
     62 H28        14.8892    3.2001    6.7560 H         1 <0>         0.0830
     63 H29        14.2812    1.7774    7.6362 H         1 <0>         0.0425
     64 H30        16.3712    0.6721    7.0734 H         1 <0>         0.3530
     65 H31        16.7895    3.3296    8.2779 H         1 <0>         0.0968
     66 H32        16.1816    1.9069    9.1581 H         1 <0>         0.0550
     67 H33        18.2665    0.6797    8.6145 H         1 <0>         0.1301
     68 H34        18.8744    2.1023    7.7343 H         1 <0>         0.1397
     69 H35        19.5471    4.0578    8.9282 H         1 <0>         0.1308
     70 H36        17.8487    4.1874    9.4426 H         1 <0>         0.1275
     71 H37        19.3381    5.4738   10.9522 H         1 <0>         0.1135
     72 H38        18.5633    4.1237   11.8171 H         1 <0>         0.0873
     73 H39        21.3864    4.1388   10.6528 H         1 <0>         0.0832
     74 H40        20.9590    4.2090   12.3807 H         1 <0>         0.0965
     75 H41        21.5747    1.8947   11.6509 H         1 <0>         0.1150
     76 H42        19.8947    1.9932   12.2330 H         1 <0>         0.0879
     77 H43        20.0319    0.6936   10.1247 H         1 <0>         0.1306
     78 H44        20.7764    2.0907    9.3122 H         1 <0>         0.1304
     79 H45        10.5267    1.4790    4.4268 H         1 <0>         0.4266
     80 H46        18.1266    2.0866   10.5715 H         1 <0>         0.4213
@<TRIPOS>BOND
     1    1    6 ar
     2    1    2 ar
     3    1   35 1
     4    2    3 ar
     5    2   36 1
     6    3    4 ar
     7    3   37 1
     8    4   10 ar
     9    4    5 ar
    10    5    6 ar
    11    5    7 ar
    12    6   38 1
    13    7    8 ar
    14    7   39 1
    15    8    9 ar
    16    8   40 1
    17    9   10 ar
    18    9   41 1
    19   10   11 1
    20   11   12 1
    21   11   42 1
    22   11   43 1
    23   12   13 2
    24   12   14 am
    25   14   19 1
    26   14   15 1
    27   15   16 1
    28   15   44 1
    29   15   45 1
    30   16   17 1
    31   16   46 1
    32   16   47 1
    33   17   18 1
    34   17   20 1
    35   17   48 1
    36   18   19 1
    37   18   49 1
    38   18   50 1
    39   19   51 1
    40   19   52 1
    41   20   21 1
    42   20   53 1
    43   20   54 1
    44   21   22 1
    45   21   55 1
    46   21   79 1
    47   22   23 1
    48   22   56 1
    49   22   57 1
    50   23   24 1
    51   23   58 1
    52   23   59 1
    53   24   25 1
    54   24   60 1
    55   24   61 1
    56   25   26 1
    57   25   62 1
    58   25   63 1
    59   26   27 1
    60   26   64 1
    61   27   28 1
    62   27   65 1
    63   27   66 1
    64   28   29 1
    65   28   67 1
    66   28   68 1
    67   29   34 1
    68   29   30 1
    69   29   80 1
    70   30   31 1
    71   30   69 1
    72   30   70 1
    73   31   32 1
    74   31   71 1
    75   31   72 1
    76   32   33 1
    77   32   73 1
    78   32   74 1
    79   33   34 1
    80   33   75 1
    81   33   76 1
    82   34   77 1
    83   34   78 1
@<TRIPOS>MOLECULE
CHEMBL22366
   80    83     0     0     0
SMALL
USER_CHARGES

@<TRIPOS>ATOM
      1 C1         -0.0164    1.3567    0.0095 C.ar      1 <0>        -0.1175
      2 C2          1.1685    2.0906    0.0021 C.ar      1 <0>        -0.1069
      3 C3          2.3785    1.4679   -0.0132 C.ar      1 <0>        -0.1156
      4 C4          2.4378    0.0637   -0.0214 C.ar      1 <0>        -0.0326
      5 C5          1.2328   -0.6827   -0.0134 C.ar      1 <0>        -0.0523
      6 C6          0.0021   -0.0041    0.0020 C.ar      1 <0>        -0.0990
      7 C7          1.2920   -2.0865   -0.0210 C.ar      1 <0>        -0.0942
      8 C8          2.5022   -2.7094   -0.0359 C.ar      1 <0>        -0.1194
      9 C9          3.6867   -1.9757   -0.0433 C.ar      1 <0>        -0.0974
     10 C10         3.6681   -0.6146   -0.0367 C.ar      1 <0>        -0.0700
     11 C11         4.9603    0.1606   -0.0459 C.3       1 <0>        -0.0992
     12 C12         5.3414    0.5186    1.3675 C.2       1 <0>         0.5189
     13 O1          4.6334    0.1777    2.2913 O.2       1 <0>        -0.5087
     14 N1          6.4691    1.2175    1.6049 N.am      1 <0>        -0.6248
     15 C13         7.3338    1.6427    0.4958 C.3       1 <0>         0.1036
     16 C14         8.7613    1.1593    0.7702 C.3       1 <0>        -0.1286
     17 C15         9.2100    1.6607    2.1448 C.3       1 <0>        -0.1151
     18 C16         8.2897    1.0865    3.2244 C.3       1 <0>        -0.1436
     19 C17         6.8539    1.5739    2.9774 C.3       1 <0>         0.1109
     20 C18        10.6479    1.2089    2.4077 C.3       1 <0>        -0.0057
     21 N2         11.1201    1.7892    3.6719 N.4       1 <0>        -0.5116
     22 C19        12.5007    1.3554    3.9244 C.3       1 <0>        -0.0094
     23 C20        12.9925    1.9599    5.2411 C.3       1 <0>        -0.1498
     24 C21        14.4304    1.5081    5.5040 C.3       1 <0>        -0.1489
     25 C22        14.9222    2.1125    6.8207 C.3       1 <0>        -0.0078
     26 N3         16.3028    1.6787    7.0732 N.4       1 <0>        -0.5081
     27 C23        16.7750    2.2591    8.3374 C.3       1 <0>        -0.0108
     28 C24        18.2129    1.8073    8.6003 C.3       1 <0>         0.0245
     29 N4         18.6851    2.3876    9.8645 N.3       1 <0>        -0.5308
     30 C25        18.7848    3.8495    9.7677 C.3       1 <0>         0.0475
     31 C26        19.1374    4.4300   11.1391 C.3       1 <0>        -0.1202
     32 C27        20.4688    3.8391   11.6111 C.3       1 <0>        -0.1285
     33 C28        20.3532    2.3130   11.6568 C.3       1 <0>        -0.1209
     34 C29        19.9654    1.7938   10.2704 C.3       1 <0>         0.0566
     35 H1         -0.9634    1.8756    0.0259 H         1 <0>         0.1268
     36 H2          1.1258    3.1698    0.0084 H         1 <0>         0.1232
     37 H3          3.2883    2.0497   -0.0195 H         1 <0>         0.1164
     38 H4         -0.9241   -0.5595    0.0082 H         1 <0>         0.1309
     39 H5          0.3820   -2.6682   -0.0147 H         1 <0>         0.1308
     40 H6          2.5450   -3.7886   -0.0417 H         1 <0>         0.1264
     41 H7          4.6338   -2.4947   -0.0548 H         1 <0>         0.1185
     42 H8          5.7467   -0.4491   -0.4909 H         1 <0>         0.1047
     43 H9          4.8331    1.0722   -0.6299 H         1 <0>         0.1065
     44 H10         6.9734    1.2073   -0.4362 H         1 <0>         0.1003
     45 H11         7.3242    2.7301    0.4212 H         1 <0>         0.0777
     46 H12         8.7858    0.0697    0.7546 H         1 <0>         0.0822
     47 H13         9.4312    1.5498    0.0041 H         1 <0>         0.0911
     48 H14         9.1617    2.7494    2.1678 H         1 <0>         0.0998
     49 H15         8.3186   -0.0024    3.1857 H         1 <0>         0.0851
     50 H16         8.6239    1.4251    4.2051 H         1 <0>         0.0668
     51 H17         6.8060    2.6558    3.1010 H         1 <0>         0.0724
     52 H18         6.1767    1.0931    3.6833 H         1 <0>         0.1035
     53 H19        10.6810    0.1213    2.4725 H         1 <0>         0.1351
     54 H20        11.2889    1.5440    1.5923 H         1 <0>         0.1374
     55 H21        11.0895    2.7960    3.6120 H         1 <0>         0.4305
     56 H22        12.5338    0.2679    3.9891 H         1 <0>         0.1361
     57 H23        13.1417    1.6906    3.1090 H         1 <0>         0.1366
     58 H24        12.9594    3.0474    5.1764 H         1 <0>         0.1001
     59 H25        12.3515    1.6248    6.0565 H         1 <0>         0.1001
     60 H26        14.4635    0.4205    5.5687 H         1 <0>         0.1003
     61 H27        15.0714    1.8432    4.6886 H         1 <0>         0.0997
     62 H28        14.8892    3.2001    6.7560 H         1 <0>         0.1358
     63 H29        14.2812    1.7774    7.6362 H         1 <0>         0.1375
     64 H30        16.3334    0.6720    7.1331 H         1 <0>         0.4313
     65 H31        16.7420    3.3466    8.2727 H         1 <0>         0.1333
     66 H32        16.1340    1.9240    9.1528 H         1 <0>         0.1438
     67 H33        18.2460    0.7197    8.6650 H         1 <0>         0.0983
     68 H34        18.8539    2.1424    7.7849 H         1 <0>         0.0573
     69 H35        19.5621    4.1138    9.0507 H         1 <0>         0.0433
     70 H36        17.8303    4.2574    9.4352 H         1 <0>         0.0709
     71 H37        19.2267    5.5137   11.0635 H         1 <0>         0.0751
     72 H38        18.3537    4.1778   11.8535 H         1 <0>         0.0750
     73 H39        21.2600    4.1238   10.9175 H         1 <0>         0.0627
     74 H40        20.7025    4.2167   12.6065 H         1 <0>         0.0747
     75 H41        21.3111    1.8841   11.9511 H         1 <0>         0.0780
     76 H42        19.5887    2.0274   12.3793 H         1 <0>         0.0756
     77 H43        19.8683    0.7086   10.3031 H         1 <0>         0.0820
     78 H44        20.7371    2.0678    9.5511 H         1 <0>         0.0436
     79 H45        10.5267    1.4790    4.4268 H         1 <0>         0.4288
     80 H46        16.8962    1.9890    6.3184 H         1 <0>         0.4294
@<TRIPOS>BOND
     1    1    6 ar
     2    1    2 ar
     3    1   35 1
     4    2    3 ar
     5    2   36 1
     6    3    4 ar
     7    3   37 1
     8    4   10 ar
     9    4    5 ar
    10    5    6 ar
    11    5    7 ar
    12    6   38 1
    13    7    8 ar
    14    7   39 1
    15    8    9 ar
    16    8   40 1
    17    9   10 ar
    18    9   41 1
    19   10   11 1
    20   11   12 1
    21   11   42 1
    22   11   43 1
    23   12   13 2
    24   12   14 am
    25   14   19 1
    26   14   15 1
    27   15   16 1
    28   15   44 1
    29   15   45 1
    30   16   17 1
    31   16   46 1
    32   16   47 1
    33   17   18 1
    34   17   20 1
    35   17   48 1
    36   18   19 1
    37   18   49 1
    38   18   50 1
    39   19   51 1
    40   19   52 1
    41   20   21 1
    42   20   53 1
    43   20   54 1
    44   21   22 1
    45   21   55 1
    46   21   79 1
    47   22   23 1
    48   22   56 1
    49   22   57 1
    50   23   24 1
    51   23   58 1
    52   23   59 1
    53   24   25 1
    54   24   60 1
    55   24   61 1
    56   25   26 1
    57   25   62 1
    58   25   63 1
    59   26   27 1
    60   26   64 1
    61   26   80 1
    62   27   28 1
    63   27   65 1
    64   27   66 1
    65   28   29 1
    66   28   67 1
    67   28   68 1
    68   29   34 1
    69   29   30 1
    70   30   31 1
    71   30   69 1
    72   30   70 1
    73   31   32 1
    74   31   71 1
    75   31   72 1
    76   32   33 1
    77   32   73 1
    78   32   74 1
    79   33   34 1
    80   33   75 1
    81   33   76 1
    82   34   77 1
    83   34   78 1
@<TRIPOS>MOLECULE
CHEMBL347246
   48    52     0     0     0
SMALL
USER_CHARGES

@<TRIPOS>ATOM
      1 C1          9.6893    0.1320   -5.3015 C.ar      1 <0>        -0.1193
      2 C2          9.4086   -1.2119   -5.1405 C.ar      1 <0>        -0.1179
      3 C3          8.6373   -1.6340   -4.0738 C.ar      1 <0>        -0.1133
      4 C4          8.1472   -0.7122   -3.1678 C.ar      1 <0>        -0.0863
      5 C5          8.4287    0.6317   -3.3282 C.ar      1 <0>        -0.1133
      6 C6          9.1987    1.0539   -4.3957 C.ar      1 <0>        -0.1179
      7 C7          7.3055   -1.1722   -2.0054 C.3       1 <0>        -0.0910
      8 C8          8.2107   -1.4820   -0.8114 C.3       1 <0>         0.1419
      9 N1          7.3925   -1.9293    0.3185 N.am      1 <0>        -0.7397
     10 C9          7.9790   -2.2597    1.4861 C.2       1 <0>         0.7034
     11 O1          9.1872   -2.1867    1.6016 O.2       1 <0>        -0.5662
     12 N2          7.2263   -2.6711    2.5257 N.am      1 <0>        -0.6853
     13 C10         7.8404   -3.1197    3.6994 C.ar      1 <0>         0.1916
     14 C11         7.2323   -2.8995    4.9300 C.ar      1 <0>        -0.1427
     15 C12         7.8324   -3.3390    6.0896 C.ar      1 <0>        -0.0601
     16 C13         9.0578   -4.0098    6.0300 C.ar      1 <0>        -0.0842
     17 C14         9.6605   -4.2268    4.7916 C.ar      1 <0>        -0.0489
     18 C15         9.0567   -3.7912    3.6352 C.ar      1 <0>        -0.0975
     19 C16        10.9484   -4.9630    5.0624 C.3       1 <0>        -0.0207
     20 C17        11.0111   -5.1378    6.5638 C.2       1 <0>        -0.0054
     21 C18         9.9121   -4.5811    7.0979 C.2       1 <0>         0.1569
     22 N3          9.7075   -4.5965    8.4780 N.am      1 <0>        -0.6289
     23 C19        10.6077   -5.1698    9.3007 C.2       1 <0>         0.6009
     24 C20        11.8107   -5.7793    8.7168 C.2       1 <0>         0.1318
     25 N4         11.9691   -5.7411    7.3571 N.pl3     1 <0>        -0.3469
     26 C21        13.1438   -6.3628    7.0758 C.2       1 <0>        -0.0275
     27 C22        13.6741   -6.7662    8.2578 C.2       1 <0>        -0.0052
     28 N5         12.8489   -6.4009    9.2372 N.2       1 <0>        -0.4101
     29 O2         10.4281   -5.1822   10.5049 O.2       1 <0>        -0.4854
     30 H1         10.2956    0.4613   -6.1324 H         1 <0>         0.1228
     31 H2          9.7915   -1.9321   -5.8484 H         1 <0>         0.1234
     32 H3          8.4174   -2.6839   -3.9485 H         1 <0>         0.1224
     33 H4          8.0454    1.3519   -2.6206 H         1 <0>         0.1223
     34 H5          9.4183    2.1039   -4.5213 H         1 <0>         0.1234
     35 H6          6.6013   -0.3861   -1.7331 H         1 <0>         0.0807
     36 H7          6.7562   -2.0704   -2.2876 H         1 <0>         0.0809
     37 H8          8.9149   -2.2682   -1.0837 H         1 <0>         0.0725
     38 H9          8.7601   -0.5839   -0.5293 H         1 <0>         0.0722
     39 H10         6.4287   -1.9875    0.2264 H         1 <0>         0.3996
     40 H11         6.2587   -2.6561    2.4597 H         1 <0>         0.4111
     41 H12         6.2859   -2.3815    4.9772 H         1 <0>         0.1368
     42 H13         7.3570   -3.1653    7.0437 H         1 <0>         0.1331
     43 H14         9.5281   -3.9668    2.6794 H         1 <0>         0.1467
     44 H15        10.9369   -5.9355    4.5702 H         1 <0>         0.1151
     45 H16        11.7983   -4.3750    4.7159 H         1 <0>         0.1164
     46 H17        13.5743   -6.5085    6.0961 H         1 <0>         0.1919
     47 H18        14.6082   -7.2936    8.3833 H         1 <0>         0.1914
     48 H19         8.9088   -4.1901    8.8493 H         1 <0>         0.4245
@<TRIPOS>BOND
     1    1    6 ar
     2    1    2 ar
     3    1   30 1
     4    2    3 ar
     5    2   31 1
     6    3    4 ar
     7    3   32 1
     8    4    5 ar
     9    4    7 1
    10    5    6 ar
    11    5   33 1
    12    6   34 1
    13    7    8 1
    14    7   35 1
    15    7   36 1
    16    8    9 1
    17    8   37 1
    18    8   38 1
    19    9   10 am
    20    9   39 1
    21   10   11 2
    22   10   12 am
    23   12   13 1
    24   12   40 1
    25   13   18 ar
    26   13   14 ar
    27   14   15 ar
    28   14   41 1
    29   15   16 ar
    30   15   42 1
    31   16   21 1
    32   16   17 ar
    33   17   18 ar
    34   17   19 1
    35   18   43 1
    36   19   20 1
    37   19   44 1
    38   19   45 1
    39   20   25 1
    40   20   21 2
    41   21   22 1
    42   22   23 am
    43   22   48 1
    44   23   24 1
    45   23   29 2
    46   24   28 2
    47   24   25 1
    48   25   26 1
    49   26   27 2
    50   26   46 1
    51   27   28 1
    52   27   47 1
@<TRIPOS>MOLECULE
CHEMBL347246
   47    51     0     0     0
SMALL
USER_CHARGES

@<TRIPOS>ATOM
      1 C1          6.7591   -5.7630   -5.5620 C.ar      1 <0>        -0.1218
      2 C2          5.7108   -6.0168   -4.6973 C.ar      1 <0>        -0.1186
      3 C3          5.5350   -5.2300   -3.5745 C.ar      1 <0>        -0.1131
      4 C4          6.4078   -4.1895   -3.3160 C.ar      1 <0>        -0.0825
      5 C5          7.4565   -3.9363   -4.1802 C.ar      1 <0>        -0.1133
      6 C6          7.6315   -4.7222   -5.3038 C.ar      1 <0>        -0.1188
      7 C7          6.2155   -3.3311   -2.0924 C.3       1 <0>        -0.0914
      8 C8          6.9910   -3.9342   -0.9194 C.3       1 <0>         0.1436
      9 N1          6.8041   -3.0997    0.2701 N.am      1 <0>        -0.7453
     10 C9          7.3982   -3.4388    1.4313 C.2       1 <0>         0.7019
     11 O1          8.0893   -4.4374    1.4917 O.2       1 <0>        -0.5678
     12 N2          7.2263   -2.6711    2.5257 N.am      1 <0>        -0.6817
     13 C10         7.7624   -3.0734    3.7534 C.ar      1 <0>         0.1562
     14 C11         7.0773   -2.8054    4.9327 C.ar      1 <0>        -0.1484
     15 C12         7.6015   -3.1996    6.1445 C.ar      1 <0>        -0.0605
     16 C13         8.8254   -3.8711    6.1905 C.ar      1 <0>        -0.0386
     17 C14         9.5061   -4.1361    5.0046 C.ar      1 <0>        -0.0670
     18 C15         8.9782   -3.7466    3.7946 C.ar      1 <0>        -0.1006
     19 C16        10.7750   -4.8609    5.3793 C.3       1 <0>         0.0028
     20 C17        10.7504   -4.9819    6.8845 C.2       1 <0>        -0.1576
     21 C18         9.6088   -4.4002    7.3363 C.2       1 <0>         0.2001
     22 N3          9.3383   -4.3715    8.6595 N.2       1 <0>        -0.6035
     23 C19        10.1575   -4.8969    9.5399 C.2       1 <0>         0.4916
     24 C20        11.3576   -5.5121    9.1077 C.2       1 <0>         0.1405
     25 N4         11.6352   -5.5421    7.7644 N.pl3     1 <0>        -0.3008
     26 C21        12.8289   -6.1791    7.6163 C.2       1 <0>        -0.1065
     27 C22        13.2549   -6.5212    8.8558 C.2       1 <0>        -0.0145
     28 N5         12.3500   -6.1094    9.7445 N.2       1 <0>        -0.4598
     29 O2          9.8558   -4.8503   10.8605 O.3       1 <0>        -0.6497
     30 H1          6.8990   -6.3805   -6.4369 H         1 <0>         0.1212
     31 H2          5.0290   -6.8296   -4.8993 H         1 <0>         0.1224
     32 H3          4.7156   -5.4278   -2.8993 H         1 <0>         0.1228
     33 H4          8.1382   -3.1232   -3.9784 H         1 <0>         0.1226
     34 H5          8.4507   -4.5241   -5.9792 H         1 <0>         0.1223
     35 H6          6.5841   -2.3251   -2.2928 H         1 <0>         0.0800
     36 H7          5.1555   -3.2866   -1.8427 H         1 <0>         0.0802
     37 H8          6.6224   -4.9402   -0.7190 H         1 <0>         0.0700
     38 H9          8.0510   -3.9787   -1.1691 H         1 <0>         0.0699
     39 H10         6.2528   -2.3030    0.2220 H         1 <0>         0.3968
     40 H11         6.7309   -1.8397    2.4618 H         1 <0>         0.4056
     41 H12         6.1310   -2.2860    4.8991 H         1 <0>         0.1262
     42 H13         7.0662   -2.9892    7.0586 H         1 <0>         0.1348
     43 H14         9.5097   -3.9595    2.8790 H         1 <0>         0.1406
     44 H15        10.7916   -5.8506    4.9227 H         1 <0>         0.0870
     45 H16        11.6446   -4.2852    5.0625 H         1 <0>         0.0859
     46 H17        13.3403   -6.3748    6.6854 H         1 <0>         0.1680
     47 H18        14.1729   -7.0416    9.0856 H         1 <0>         0.1689
@<TRIPOS>BOND
     1    1    6 ar
     2    1    2 ar
     3    1   30 1
     4    2    3 ar
     5    2   31 1
     6    3    4 ar
     7    3   32 1
     8    4    5 ar
     9    4    7 1
    10    5    6 ar
    11    5   33 1
    12    6   34 1
    13    7    8 1
    14    7   35 1
    15    7   36 1
    16    8    9 1
    17    8   37 1
    18    8   38 1
    19    9   10 am
    20    9   39 1
    21   10   11 2
    22   10   12 am
    23   12   13 1
    24   12   40 1
    25   13   18 ar
    26   13   14 ar
    27   14   15 ar
    28   14   41 1
    29   15   16 ar
    30   15   42 1
    31   16   21 1
    32   16   17 ar
    33   17   18 ar
    34   17   19 1
    35   18   43 1
    36   19   20 1
    37   19   44 1
    38   19   45 1
    39   20   25 1
    40   20   21 2
    41   21   22 1
    42   22   23 2
    43   23   24 1
    44   23   29 1
    45   24   28 2
    46   24   25 1
    47   25   26 1
    48   26   27 2
    49   26   46 1
    50   27   28 1
    51   27   47 1
@<TRIPOS>MOLECULE
CHEMBL146119
   43    45     0     0     0
SMALL
USER_CHARGES

@<TRIPOS>ATOM
      1 C1          1.0279   -0.5781   -0.8354 C.3       1 <0>         0.0261
      2 O1          0.0002   -0.0010   -0.0275 O.3       1 <0>        -0.3174
      3 C2         -1.2024   -0.6355   -0.0122 C.ar      1 <0>         0.1147
      4 C3         -1.3853   -1.7925   -0.7552 C.ar      1 <0>        -0.1877
      5 C4         -2.6064   -2.4373   -0.7401 C.ar      1 <0>        -0.0775
      6 C5         -3.6509   -1.9277    0.0194 C.ar      1 <0>         0.1220
      7 C6         -3.4670   -0.7699    0.7633 C.ar      1 <0>        -0.1039
      8 C7         -2.2439   -0.1287    0.7511 C.ar      1 <0>        -0.1314
      9 N1         -4.8905   -2.5814    0.0349 N.am      1 <0>        -0.6803
     10 C8         -4.9456   -3.9241   -0.0684 C.2       1 <0>         0.7059
     11 O2         -3.9191   -4.5758   -0.0776 O.2       1 <0>        -0.5649
     12 N2         -6.1385   -4.5444   -0.1614 N.am      1 <0>        -0.7468
     13 C9         -6.1984   -6.0039   -0.2737 C.3       1 <0>         0.1784
     14 C10        -7.6375   -6.4422   -0.3626 C.ar      1 <0>        -0.1132
     15 C11        -8.2823   -6.9238    0.7585 C.ar      1 <0>        -0.0173
     16 C12        -9.6044   -7.3275    0.6831 C.ar      1 <0>        -0.0391
     17 C13       -10.2873   -7.2514   -0.5138 C.ar      1 <0>        -0.0453
     18 C14        -9.6482   -6.7684   -1.6500 C.ar      1 <0>         0.1226
     19 C15        -8.3166   -6.3559   -1.5726 C.ar      1 <0>         0.1910
     20 N3         -7.6609   -5.8641   -2.6978 N.am      1 <0>        -0.6345
     21 C16        -8.3120   -5.7769   -3.8755 C.2       1 <0>         0.5109
     22 C17        -9.7364   -6.2119   -3.9568 C.2       1 <0>         0.5120
     23 N4        -10.3435   -6.6950   -2.8538 N.am      1 <0>        -0.6318
     24 O3        -10.3403   -6.1412   -5.0083 O.2       1 <0>        -0.4465
     25 O4         -7.7444   -5.3481   -4.8600 O.2       1 <0>        -0.4404
     26 N5        -10.2880   -7.8433    1.8905 N.pl3     1 <0>         0.0334
     27 O5         -9.6917   -7.9113    2.9401 O.2       1 <0>        -0.1441
     28 O6        -11.4425   -8.1964    1.8272 O.3       1 <0>        -0.1486
     29 H1          1.9327    0.0248   -0.7578 H         1 <0>         0.1013
     30 H2          1.2356   -1.5910   -0.4903 H         1 <0>         0.0565
     31 H3          0.6995   -0.6084   -1.8743 H         1 <0>         0.0560
     32 H4         -0.5728   -2.1888   -1.3460 H         1 <0>         0.1321
     33 H5         -2.7489   -3.3377   -1.3192 H         1 <0>         0.1382
     34 H6         -4.2790   -0.3730    1.3543 H         1 <0>         0.1331
     35 H7         -2.0995    0.7696    1.3329 H         1 <0>         0.1364
     36 H8         -5.7087   -2.0675    0.1199 H         1 <0>         0.4075
     37 H9         -6.9573   -4.0245   -0.1541 H         1 <0>         0.4010
     38 H10        -5.6658   -6.3215   -1.1701 H         1 <0>         0.0868
     39 H11        -5.7347   -6.4551    0.6035 H         1 <0>         0.1018
     40 H12        -7.7535   -6.9863    1.6981 H         1 <0>         0.1705
     41 H13       -11.3186   -7.5675   -0.5678 H         1 <0>         0.1726
     42 H14       -11.2695   -6.9806   -2.8964 H         1 <0>         0.4308
     43 H15        -6.7346   -5.5834   -2.6346 H         1 <0>         0.4292
@<TRIPOS>BOND
     1    1    2 1
     2    1   29 1
     3    1   30 1
     4    1   31 1
     5    2    3 1
     6    3    8 ar
     7    3    4 ar
     8    4    5 ar
     9    4   32 1
    10    5    6 ar
    11    5   33 1
    12    6    7 ar
    13    6    9 1
    14    7    8 ar
    15    7   34 1
    16    8   35 1
    17    9   10 am
    18    9   36 1
    19   10   11 2
    20   10   12 am
    21   12   13 1
    22   12   37 1
    23   13   14 1
    24   13   38 1
    25   13   39 1
    26   14   19 ar
    27   14   15 ar
    28   15   16 ar
    29   15   40 1
    30   16   17 ar
    31   16   26 1
    32   17   18 ar
    33   17   41 1
    34   18   23 1
    35   18   19 ar
    36   19   20 1
    37   20   21 am
    38   20   43 1
    39   21   22 1
    40   21   25 2
    41   22   23 am
    42   22   24 2
    43   23   42 1
    44   26   27 2
    45   26   28 1
@<TRIPOS>MOLECULE
CHEMBL128118
   25    27     0     0     0
SMALL
USER_CHARGES

@<TRIPOS>ATOM
      1 C1          0.2565    1.2783    0.8441 C.ar      1 <0>        -0.0910
      2 C2          1.4427    1.9443    0.5600 C.ar      1 <0>         0.0908
      3 C3          2.3872    1.3523   -0.2983 C.ar      1 <0>         0.1958
      4 C4          2.1184    0.0936   -0.8579 C.ar      1 <0>        -0.0546
      5 C5          0.9502   -0.5468   -0.5699 C.ar      1 <0>        -0.0168
      6 C6          0.0122    0.0373    0.2809 C.ar      1 <0>         0.1278
      7 N1         -1.1825   -0.6345    0.5670 N.pl3     1 <0>        -0.3254
      8 C7         -2.3821   -0.4324   -0.0130 C.2       1 <0>         0.2767
      9 N2         -3.2392   -1.2574    0.5316 N.2       1 <0>        -0.5409
     10 C8         -2.6294   -1.9976    1.4570 C.2       1 <0>         0.2005
     11 N3         -1.3682   -1.6574    1.5112 N.2       1 <0>        -0.3017
     12 N4          0.6746   -1.8737   -1.1654 N.pl3     1 <0>         0.0411
     13 O1          1.5234   -2.4291   -1.8233 O.2       1 <0>        -0.1635
     14 O2         -0.3992   -2.4021   -0.9939 O.3       1 <0>        -0.1598
     15 N5          3.5440    1.9830   -0.5852 N.2       1 <0>        -0.5987
     16 C9          3.8166    3.1552   -0.0764 C.2       1 <0>         0.4256
     17 C10         2.8554    3.8107    0.8263 C.2       1 <0>         0.4782
     18 N6          1.6950    3.1838    1.1186 N.am      1 <0>        -0.6284
     19 O3          3.1036    4.9028    1.3036 O.2       1 <0>        -0.5054
     20 O4          4.9863    3.7688   -0.3797 O.3       1 <0>        -0.6004
     21 H1         -0.4706    1.7254    1.5057 H         1 <0>         0.1448
     22 H2          2.8381   -0.3680   -1.5178 H         1 <0>         0.1669
     23 H3         -2.5981    0.2849   -0.7910 H         1 <0>         0.2154
     24 H4         -3.1001   -2.7591    2.0612 H         1 <0>         0.2163
     25 H5          1.0477    3.5977    1.7107 H         1 <0>         0.4065
@<TRIPOS>BOND
     1    1    6 ar
     2    1    2 ar
     3    1   21 1
     4    2   18 1
     5    2    3 ar
     6    3    4 ar
     7    3   15 1
     8    4    5 ar
     9    4   22 1
    10    5    6 ar
    11    5   12 1
    12    6    7 1
    13    7   11 1
    14    7    8 1
    15    8    9 2
    16    8   23 1
    17    9   10 1
    18   10   11 2
    19   10   24 1
    20   12   13 2
    21   12   14 1
    22   15   16 2
    23   16   17 1
    24   16   20 1
    25   17   18 am
    26   17   19 2
    27   18   25 1
@<TRIPOS>MOLECULE
CHEMBL128118
   25    27     0     0     0
SMALL
USER_CHARGES

@<TRIPOS>ATOM
      1 C1          0.2535    1.2731    0.8404 C.ar      1 <0>        -0.1045
      2 C2          1.4492    1.9475    0.5562 C.ar      1 <0>         0.2353
      3 C3          2.3918    1.3522   -0.3007 C.ar      1 <0>         0.0553
      4 C4          2.1311    0.1034   -0.8573 C.ar      1 <0>        -0.0459
      5 C5          0.9528   -0.5477   -0.5702 C.ar      1 <0>        -0.0870
      6 C6          0.0130    0.0353    0.2787 C.ar      1 <0>         0.1990
      7 N1         -1.1831   -0.6395    0.5635 N.pl3     1 <0>        -0.3340
      8 C7         -2.3819   -0.4386   -0.0172 C.2       1 <0>         0.2809
      9 N2         -3.2386   -1.2656    0.5255 N.2       1 <0>        -0.5403
     10 C8         -2.6290   -2.0059    1.4506 C.2       1 <0>         0.2024
     11 N3         -1.3683   -1.6635    1.5068 N.2       1 <0>        -0.2991
     12 N4          0.6820   -1.8753   -1.1662 N.pl3     1 <0>         0.0552
     13 O1          1.5336   -2.4285   -1.8222 O.2       1 <0>        -0.1872
     14 O2         -0.3909   -2.4064   -0.9970 O.3       1 <0>        -0.1692
     15 N5          3.5757    2.0067   -0.5890 N.am      1 <0>        -0.6292
     16 C9          3.8073    3.2175   -0.0369 C.2       1 <0>         0.4784
     17 C10         2.7927    3.8050    0.8555 C.2       1 <0>         0.4314
     18 N6          1.6859    3.1573    1.1048 N.2       1 <0>        -0.5997
     19 O3          3.0081    5.0184    1.4185 O.3       1 <0>        -0.5885
     20 O4          4.8411    3.8154   -0.2733 O.2       1 <0>        -0.5056
     21 H1         -0.4756    1.7188    1.5007 H         1 <0>         0.1567
     22 H2          2.8541   -0.3551   -1.5157 H         1 <0>         0.1541
     23 H3         -2.5980    0.2793   -0.7946 H         1 <0>         0.2167
     24 H4         -3.0993   -2.7685    2.0536 H         1 <0>         0.2172
     25 H5          4.2306    1.6017   -1.1790 H         1 <0>         0.4080
@<TRIPOS>BOND
     1    1    6 ar
     2    1    2 ar
     3    1   21 1
     4    2   18 1
     5    2    3 ar
     6    3    4 ar
     7    3   15 1
     8    4    5 ar
     9    4   22 1
    10    5    6 ar
    11    5   12 1
    12    6    7 1
    13    7   11 1
    14    7    8 1
    15    8    9 2
    16    8   23 1
    17    9   10 1
    18   10   11 2
    19   10   24 1
    20   12   13 2
    21   12   14 1
    22   15   16 am
    23   15   25 1
    24   16   17 1
    25   16   20 2
    26   17   18 2
    27   17   19 1
@<TRIPOS>MOLECULE
CHEMBL128118
   26    28     0     0     0
SMALL
USER_CHARGES

@<TRIPOS>ATOM
      1 C1         -0.0143    1.2894   -0.3537 C.ar      1 <0>        -0.1167
      2 C2          1.1514    2.0459   -0.3577 C.ar      1 <0>         0.1902
      3 C3          2.3653    1.4515   -0.0068 C.ar      1 <0>         0.1319
      4 C4          2.4007    0.1059    0.3447 C.ar      1 <0>        -0.0415
      5 C5          1.2409   -0.6393    0.3472 C.ar      1 <0>        -0.0290
      6 C6          0.0305   -0.0499   -0.0019 C.ar      1 <0>         0.2266
      7 N1         -1.1463   -0.8125    0.0018 N.pl3     1 <0>        -0.3581
      8 C7         -2.2663   -0.5659    0.7086 C.2       1 <0>         0.2752
      9 N2         -3.1328   -1.5079    0.4361 N.2       1 <0>        -0.5245
     10 C8         -2.6066   -2.3685   -0.4346 C.2       1 <0>         0.2199
     11 N3         -1.3942   -1.9820   -0.7352 N.2       1 <0>        -0.2808
     12 N4          1.2840   -2.0707    0.7219 N.pl3     1 <0>         0.0336
     13 O1          2.3469   -2.6129    0.9164 O.2       1 <0>        -0.1535
     14 O2          0.2563   -2.6975    0.8335 O.3       1 <0>        -0.1197
     15 N5          3.5430    2.1944   -0.0058 N.am      1 <0>        -0.6311
     16 C9          3.5197    3.4994   -0.3443 C.2       1 <0>         0.5124
     17 C10         2.2232    4.1340   -0.7186 C.2       1 <0>         0.5130
     18 N6          1.0980    3.3910   -0.7124 N.am      1 <0>        -0.6322
     19 O3          2.1812    5.3082   -1.0267 O.2       1 <0>        -0.4394
     20 O4          4.5445    4.1516   -0.3441 O.2       1 <0>        -0.4433
     21 H1         -0.9557    1.7465   -0.6206 H         1 <0>         0.1722
     22 H2          3.3386   -0.3559    0.6158 H         1 <0>         0.1800
     23 H3         -2.4219    0.2639    1.3821 H         1 <0>         0.2243
     24 H4         -3.1031   -3.2417   -0.8314 H         1 <0>         0.2265
     25 H5          0.2499    3.7945   -0.9549 H         1 <0>         0.4318
     26 H6          4.3814    1.7726    0.2392 H         1 <0>         0.4321
@<TRIPOS>BOND
     1    1    6 ar
     2    1    2 ar
     3    1   21 1
     4    2   18 1
     5    2    3 ar
     6    3    4 ar
     7    3   15 1
     8    4    5 ar
     9    4   22 1
    10    5    6 ar
    11    5   12 1
    12    6    7 1
    13    7   11 1
    14    7    8 1
    15    8    9 2
    16    8   23 1
    17    9   10 1
    18   10   11 2
    19   10   24 1
    20   12   13 2
    21   12   14 1
    22   15   16 am
    23   15   26 1
    24   16   17 1
    25   16   20 2
    26   17   18 am
    27   17   19 2
    28   18   25 1
@<TRIPOS>MOLECULE
CHEMBL310892
   40    42     0     0     0
SMALL
USER_CHARGES

@<TRIPOS>ATOM
      1 C1         -0.0166    1.3755    0.0096 C.ar      1 <0>        -0.0211
      2 C2          1.1701    2.0892    0.0021 C.ar      1 <0>        -0.0386
      3 C3          2.3799    1.4261   -0.0135 C.ar      1 <0>        -0.0575
      4 C4          2.4114    0.0358   -0.0217 C.ar      1 <0>         0.1212
      5 C5          1.2153   -0.6836   -0.0142 C.ar      1 <0>         0.1795
      6 C6          0.0021   -0.0041    0.0020 C.ar      1 <0>        -0.0694
      7 C7         -1.2928   -0.7749    0.0108 C.3       1 <0>         0.0854
      8 N1         -1.5770   -1.2393    1.3751 N.3       1 <0>        -0.5292
      9 C8         -0.5773   -2.2204    1.8160 C.3       1 <0>         0.0327
     10 C9         -0.8188   -2.5715    3.2858 C.3       1 <0>        -0.0855
     11 C10        -2.2293   -3.1463    3.4431 C.3       1 <0>        -0.1571
     12 C11        -3.2484   -2.1241    2.9321 C.3       1 <0>        -0.0888
     13 C12        -2.9365   -1.7860    1.4725 C.3       1 <0>         0.0573
     14 C13        -2.4949   -3.4383    4.8975 C.2       1 <0>         0.4962
     15 O1         -3.6306   -3.3699    5.3356 O.co2     1 <0>        -0.6986
     16 O2         -1.5739   -3.7429    5.6362 O.co2     1 <0>        -0.6991
     17 N2          1.2259   -2.0756   -0.0227 N.am      1 <0>        -0.6366
     18 C14         2.3977   -2.7427   -0.0380 C.2       1 <0>         0.5070
     19 C15         3.6758   -1.9740   -0.0456 C.2       1 <0>         0.5138
     20 N3          3.6359   -0.6262   -0.0379 N.am      1 <0>        -0.6307
     21 O3          4.7418   -2.5562   -0.0593 O.2       1 <0>        -0.4559
     22 O4          2.4122   -3.9573   -0.0451 O.2       1 <0>        -0.4455
     23 N4          1.1406    3.5691    0.0104 N.pl3     1 <0>         0.0382
     24 O5          0.0817    4.1525    0.0236 O.2       1 <0>        -0.1487
     25 O6          2.1752    4.1945    0.0038 O.3       1 <0>        -0.1594
     26 H1         -0.9602    1.9006    0.0260 H         1 <0>         0.1677
     27 H2          3.3028    1.9869   -0.0196 H         1 <0>         0.1679
     28 H3         -2.1024   -0.1291   -0.3292 H         1 <0>         0.1056
     29 H4         -1.2090   -1.6336   -0.6553 H         1 <0>         0.0477
     30 H5         -0.6607   -3.1218    1.2088 H         1 <0>         0.0296
     31 H6          0.4210   -1.7977    1.7029 H         1 <0>         0.0742
     32 H7         -0.0863   -3.3115    3.6084 H         1 <0>         0.0702
     33 H8         -0.7219   -1.6731    3.8953 H         1 <0>         0.0660
     34 H9         -2.3145   -4.0661    2.8645 H         1 <0>         0.0578
     35 H10        -4.2517   -2.5444    3.0018 H         1 <0>         0.0729
     36 H11        -3.1897   -1.2186    3.5360 H         1 <0>         0.0655
     37 H12        -3.6517   -1.0477    1.1099 H         1 <0>         0.0751
     38 H13        -3.0088   -2.6894    0.8669 H         1 <0>         0.0324
     39 H14         4.4616   -0.1171   -0.0437 H         1 <0>         0.4276
     40 H15         0.3892   -2.5663   -0.0174 H         1 <0>         0.4303
@<TRIPOS>BOND
     1    1    6 ar
     2    1    2 ar
     3    1   26 1
     4    2    3 ar
     5    2   23 1
     6    3    4 ar
     7    3   27 1
     8    4   20 1
     9    4    5 ar
    10    5    6 ar
    11    5   17 1
    12    6    7 1
    13    7    8 1
    14    7   28 1
    15    7   29 1
    16    8   13 1
    17    8    9 1
    18    9   10 1
    19    9   30 1
    20    9   31 1
    21   10   11 1
    22   10   32 1
    23   10   33 1
    24   11   12 1
    25   11   14 1
    26   11   34 1
    27   12   13 1
    28   12   35 1
    29   12   36 1
    30   13   37 1
    31   13   38 1
    32   14   15 2
    33   14   16 1
    34   17   18 am
    35   17   40 1
    36   18   19 1
    37   18   22 2
    38   19   20 am
    39   19   21 2
    40   20   39 1
    41   23   24 2
    42   23   25 1
@<TRIPOS>MOLECULE
CHEMBL310892
   40    42     0     0     0
SMALL
USER_CHARGES

@<TRIPOS>ATOM
      1 C1         -0.0164    1.3605    0.0095 C.ar      1 <0>        -0.0104
      2 C2          1.1683    2.0841    0.0021 C.ar      1 <0>        -0.0992
      3 C3          2.3837    1.4349   -0.0130 C.ar      1 <0>        -0.0399
      4 C4          2.4259    0.0440   -0.0208 C.ar      1 <0>         0.0541
      5 C5          1.2260   -0.6886   -0.0132 C.ar      1 <0>         0.2411
      6 C6          0.0021   -0.0041    0.0020 C.ar      1 <0>        -0.1773
      7 C7         -1.2926   -0.7753    0.0107 C.3       1 <0>         0.0714
      8 N1         -1.5767   -1.2398    1.3750 N.4       1 <0>        -0.3761
      9 C8         -0.5429   -2.1955    1.7901 C.3       1 <0>         0.0007
     10 C9         -0.7885   -2.6209    3.2393 C.3       1 <0>        -0.1180
     11 C10        -2.1670   -3.2795    3.3456 C.3       1 <0>        -0.1694
     12 C11        -3.2302   -2.3000    2.8401 C.3       1 <0>        -0.1144
     13 C12        -2.8941   -1.8865    1.4057 C.3       1 <0>        -0.0051
     14 C13        -2.4483   -3.6305    4.7839 C.2       1 <0>         0.4967
     15 O1         -3.5958   -3.6401    5.1959 O.co2     1 <0>        -0.6936
     16 O2         -1.5284   -3.9047    5.5356 O.co2     1 <0>        -0.6865
     17 N2          1.2443   -2.0376   -0.0202 N.2       1 <0>        -0.6179
     18 C14         2.3728   -2.6956   -0.0344 C.2       1 <0>         0.4358
     19 C15         3.6533   -1.9664   -0.0432 C.2       1 <0>         0.4770
     20 N3          3.6407   -0.6155   -0.0354 N.am      1 <0>        -0.6325
     21 O3          4.7085   -2.5732   -0.0561 O.2       1 <0>        -0.4944
     22 O4          2.3659   -4.0504   -0.0406 O.3       1 <0>        -0.5638
     23 N4          1.1256    3.5637    0.0099 N.pl3     1 <0>         0.0518
     24 O5          0.0616    4.1377    0.0227 O.2       1 <0>        -0.1782
     25 O6          2.1547    4.1981    0.0035 O.3       1 <0>        -0.1797
     26 H1         -0.9618    1.8824    0.0259 H         1 <0>         0.1516
     27 H2          3.3014    2.0043   -0.0190 H         1 <0>         0.1510
     28 H3         -2.1024   -0.1297   -0.3293 H         1 <0>         0.1249
     29 H4         -1.2085   -1.6340   -0.6554 H         1 <0>         0.1405
     30 H5         -0.5786   -3.0723    1.1436 H         1 <0>         0.1340
     31 H6          0.4378   -1.7264    1.7109 H         1 <0>         0.1301
     32 H7         -0.0210   -3.3319    3.5451 H         1 <0>         0.1054
     33 H8         -0.7528   -1.7449    3.8869 H         1 <0>         0.0689
     34 H9         -2.1866   -4.1842    2.7379 H         1 <0>         0.0789
     35 H10        -4.2078   -2.7816    2.8605 H         1 <0>         0.1070
     36 H11        -3.2451   -1.4173    3.4794 H         1 <0>         0.0753
     37 H12        -3.6491   -1.1892    1.0427 H         1 <0>         0.1169
     38 H13        -2.8796   -2.7699    0.7673 H         1 <0>         0.1216
     39 H14         4.4720   -0.1156   -0.0408 H         1 <0>         0.4109
     40 H15        -1.5754   -0.4514    2.0048 H         1 <0>         0.4108
@<TRIPOS>BOND
     1    1    6 ar
     2    1    2 ar
     3    1   26 1
     4    2    3 ar
     5    2   23 1
     6    3    4 ar
     7    3   27 1
     8    4   20 1
     9    4    5 ar
    10    5    6 ar
    11    5   17 1
    12    6    7 1
    13    7    8 1
    14    7   28 1
    15    7   29 1
    16    8   13 1
    17    8    9 1
    18    8   40 1
    19    9   10 1
    20    9   30 1
    21    9   31 1
    22   10   11 1
    23   10   32 1
    24   10   33 1
    25   11   12 1
    26   11   14 1
    27   11   34 1
    28   12   13 1
    29   12   35 1
    30   12   36 1
    31   13   37 1
    32   13   38 1
    33   14   15 2
    34   14   16 1
    35   17   18 2
    36   18   19 1
    37   18   22 1
    38   19   20 am
    39   19   21 2
    40   20   39 1
    41   23   24 2
    42   23   25 1
@<TRIPOS>MOLECULE
CHEMBL13260
   26    28     0     0     0
SMALL
USER_CHARGES

@<TRIPOS>ATOM
      1 C1         -0.0427    0.5442   -0.5260 C.2       1 <0>        -0.0251
      2 C2          1.2088    0.3378   -0.9777 C.2       1 <0>        -0.0516
      3 N1          2.0613    0.7193    0.0262 N.pl3     1 <0>        -0.4127
      4 C3          1.2918    1.1476    1.0608 C.2       1 <0>         0.2332
      5 N2          0.0371    1.0380    0.7186 N.2       1 <0>        -0.4915
      6 C4          3.4606    0.6752   -0.0080 C.ar      1 <0>         0.1187
      7 C5          4.1478    1.3660   -0.9919 C.ar      1 <0>        -0.1065
      8 C6          5.5360    1.3218   -1.0253 C.ar      1 <0>         0.0977
      9 C7          6.2341    0.5748   -0.0584 C.ar      1 <0>         0.1864
     10 C8          5.5172   -0.1174    0.9292 C.ar      1 <0>        -0.0500
     11 C9          4.1551   -0.0595    0.9520 C.ar      1 <0>        -0.0329
     12 N3          3.4071   -0.7879    2.0012 N.pl3     1 <0>         0.0380
     13 O1          4.0029   -1.3266    2.9048 O.2       1 <0>        -0.1604
     14 O2          2.2003   -0.8442    1.9546 O.3       1 <0>        -0.1596
     15 N4          7.5813    0.5204   -0.0745 N.2       1 <0>        -0.5991
     16 C10         8.2707    1.1565   -0.9842 C.2       1 <0>         0.4240
     17 C11         7.5798    1.9499   -2.0144 C.2       1 <0>         0.4779
     18 N5          6.2302    2.0090   -2.0040 N.am      1 <0>        -0.6289
     19 O3          8.2166    2.5455   -2.8641 O.2       1 <0>        -0.5055
     20 O4          9.6241    1.0863   -0.9792 O.3       1 <0>        -0.6031
     21 H1         -0.9534    0.3501   -1.0731 H         1 <0>         0.1689
     22 H2          1.4877   -0.0536   -1.9449 H         1 <0>         0.1709
     23 H3          1.6571    1.5168    2.0078 H         1 <0>         0.1937
     24 H4          3.6061    1.9372   -1.7313 H         1 <0>         0.1453
     25 H5          6.0450   -0.6931    1.6751 H         1 <0>         0.1660
     26 H6          5.7551    2.5255   -2.6736 H         1 <0>         0.4062
@<TRIPOS>BOND
     1    1    5 1
     2    1    2 2
     3    1   21 1
     4    2    3 1
     5    2   22 1
     6    3    4 1
     7    3    6 1
     8    4    5 2
     9    4   23 1
    10    6   11 ar
    11    6    7 ar
    12    7    8 ar
    13    7   24 1
    14    8   18 1
    15    8    9 ar
    16    9   10 ar
    17    9   15 1
    18   10   11 ar
    19   10   25 1
    20   11   12 1
    21   12   13 2
    22   12   14 1
    23   15   16 2
    24   16   17 1
    25   16   20 1
    26   17   18 am
    27   17   19 2
    28   18   26 1
@<TRIPOS>MOLECULE
CHEMBL13260
   26    28     0     0     0
SMALL
USER_CHARGES

@<TRIPOS>ATOM
      1 C1          0.0021    1.0261    0.6815 C.2       1 <0>        -0.0328
      2 C2          1.2851    1.1518    1.0710 C.2       1 <0>        -0.0035
      3 N1          2.0612    0.7200    0.0269 N.pl3     1 <0>        -0.4186
      4 C3          1.2169    0.3440   -0.9683 C.2       1 <0>         0.1943
      5 N2         -0.0103    0.5316   -0.5652 N.2       1 <0>        -0.4866
      6 C4          3.4631    0.6752   -0.0075 C.ar      1 <0>         0.1872
      7 C5          4.1483    1.3642   -0.9882 C.ar      1 <0>        -0.1214
      8 C6          5.5486    1.3201   -1.0226 C.ar      1 <0>         0.2401
      9 C7          6.2409    0.5716   -0.0537 C.ar      1 <0>         0.0483
     10 C8          5.5325   -0.1160    0.9268 C.ar      1 <0>        -0.0431
     11 C9          4.1569   -0.0597    0.9520 C.ar      1 <0>        -0.1014
     12 N3          3.4100   -0.7888    2.0017 N.pl3     1 <0>         0.0519
     13 O1          4.0069   -1.3273    2.9047 O.2       1 <0>        -0.1911
     14 O2          2.2033   -0.8458    1.9559 O.3       1 <0>        -0.1636
     15 N4          7.6231    0.5201   -0.0760 N.am      1 <0>        -0.6298
     16 C10         8.2893    1.1961   -1.0371 C.2       1 <0>         0.4781
     17 C11         7.5249    1.9678   -2.0326 C.2       1 <0>         0.4315
     18 N5          6.2198    1.9933   -1.9802 N.2       1 <0>        -0.6005
     19 O3          8.1765    2.6523   -3.0035 O.3       1 <0>        -0.5880
     20 O4          9.5056    1.1685   -1.0799 O.2       1 <0>        -0.5063
     21 H1         -0.8666    1.2759    1.2725 H         1 <0>         0.1696
     22 H2          1.6353    1.5219    2.0233 H         1 <0>         0.1635
     23 H3          1.5115   -0.0444   -1.9320 H         1 <0>         0.2051
     24 H4          3.6064    1.9355   -1.7274 H         1 <0>         0.1574
     25 H5          6.0625   -0.6912    1.6715 H         1 <0>         0.1524
     26 H6          8.1069    0.0062    0.5893 H         1 <0>         0.4074
@<TRIPOS>BOND
     1    1    5 1
     2    1    2 2
     3    1   21 1
     4    2    3 1
     5    2   22 1
     6    3    4 1
     7    3    6 1
     8    4    5 2
     9    4   23 1
    10    6   11 ar
    11    6    7 ar
    12    7    8 ar
    13    7   24 1
    14    8   18 1
    15    8    9 ar
    16    9   10 ar
    17    9   15 1
    18   10   11 ar
    19   10   25 1
    20   11   12 1
    21   12   13 2
    22   12   14 1
    23   15   16 am
    24   15   26 1
    25   16   17 1
    26   16   20 2
    27   17   18 2
    28   17   19 1
@<TRIPOS>MOLECULE
CHEMBL13260
   27    29     0     0     0
SMALL
USER_CHARGES

@<TRIPOS>ATOM
      1 C1         -0.0420    0.5400   -0.5314 C.2       1 <0>        -0.0063
      2 C2          1.2106    0.3345   -0.9812 C.2       1 <0>        -0.0534
      3 N1          2.0611    0.7160    0.0240 N.pl3     1 <0>        -0.4382
      4 C3          1.2902    1.1432    1.0573 C.2       1 <0>         0.2377
      5 N2          0.0358    1.0332    0.7134 N.2       1 <0>        -0.4758
      6 C4          3.4628    0.6732   -0.0086 C.ar      1 <0>         0.2086
      7 C5          4.1533    1.3638   -0.9916 C.ar      1 <0>        -0.1178
      8 C6          5.5416    1.3220   -1.0247 C.ar      1 <0>         0.1918
      9 C7          6.2365    0.5821   -0.0651 C.ar      1 <0>         0.1277
     10 C8          5.5350   -0.1082    0.9174 C.ar      1 <0>        -0.0389
     11 C9          4.1572   -0.0574    0.9489 C.ar      1 <0>        -0.0426
     12 N3          3.4154   -0.7886    2.0007 N.pl3     1 <0>         0.0306
     13 O1          4.0164   -1.3259    2.9017 O.2       1 <0>        -0.1407
     14 O2          2.2087   -0.8485    1.9587 O.3       1 <0>        -0.1333
     15 N4          7.6280    0.5288   -0.0836 N.am      1 <0>        -0.6314
     16 C10         8.3177    1.1945   -1.0320 C.2       1 <0>         0.5123
     17 C11         7.5754    1.9847   -2.0560 C.2       1 <0>         0.5126
     18 N5          6.2281    2.0184   -2.0154 N.am      1 <0>        -0.6326
     19 O3          8.1785    2.5911   -2.9184 O.2       1 <0>        -0.4391
     20 O4          9.5315    1.1512   -1.0518 O.2       1 <0>        -0.4434
     21 H1         -0.9518    0.3457   -1.0799 H         1 <0>         0.1777
     22 H2          1.4912   -0.0559   -1.9483 H         1 <0>         0.1790
     23 H3          1.6541    1.5121    2.0049 H         1 <0>         0.2004
     24 H4          3.6123    1.9341   -1.7322 H         1 <0>         0.1717
     25 H5          6.0704   -0.6814    1.6599 H         1 <0>         0.1797
     26 H6          5.7364    2.5291   -2.6775 H         1 <0>         0.4318
     27 H7          8.1018    0.0124    0.5870 H         1 <0>         0.4319
@<TRIPOS>BOND
     1    1    5 1
     2    1    2 2
     3    1   21 1
     4    2    3 1
     5    2   22 1
     6    3    4 1
     7    3    6 1
     8    4    5 2
     9    4   23 1
    10    6   11 ar
    11    6    7 ar
    12    7    8 ar
    13    7   24 1
    14    8   18 1
    15    8    9 ar
    16    9   10 ar
    17    9   15 1
    18   10   11 ar
    19   10   25 1
    20   11   12 1
    21   12   13 2
    22   12   14 1
    23   15   16 am
    24   15   27 1
    25   16   17 1
    26   16   20 2
    27   17   18 am
    28   17   19 2
    29   18   26 1
@<TRIPOS>MOLECULE
CHEMBL450008
   28    30     0     0     0
SMALL
USER_CHARGES

@<TRIPOS>ATOM
      1 C1         -0.0167    1.3786    0.0096 C.ar      1 <0>         0.0026
      2 C2          1.1794    2.0765    0.0019 C.ar      1 <0>        -0.0481
      3 C3          2.4084    1.3867   -0.0069 C.ar      1 <0>         0.2965
      4 C4          2.4087    0.0035   -0.0210 C.ar      1 <0>        -0.1683
      5 C5          1.2084   -0.6855   -0.0160 C.ar      1 <0>         0.0559
      6 C6          0.0021   -0.0041    0.0020 C.ar      1 <0>        -0.1012
      7 N1         -1.2712   -0.7589    0.0131 N.pl3     1 <0>         0.0538
      8 O1         -2.3250   -0.1665    0.0288 O.2       1 <0>        -0.1830
      9 O2         -1.2574   -1.9678    0.0065 O.3       1 <0>        -0.1660
     10 Cl1         1.2142   -2.4214   -0.0325 Cl        1 <0>        -0.0285
     11 N2          3.5943    2.1191    0.0142 N.pl3     1 <0>        -0.7058
     12 C7          3.6710    3.4557   -0.5898 C.3       1 <0>         0.3191
     13 N3          2.4417    4.1975   -0.2777 N.pl3     1 <0>        -0.2905
     14 C8          1.2552    3.5495   -0.0059 C.2       1 <0>        -0.0019
     15 C9          0.3184    4.4946    0.2195 C.2       1 <0>        -0.1534
     16 C10         0.9973    5.7309    0.0815 C.2       1 <0>        -0.0305
     17 N4          2.2581    5.4593   -0.2119 N.2       1 <0>        -0.2148
     18 C11         0.4068    7.0726    0.2359 C.2       1 <0>         0.5688
     19 O3         -0.7794    7.1910    0.5094 O.co2     1 <0>        -0.6891
     20 O4          1.1032    8.0676    0.0906 O.co2     1 <0>        -0.6776
     21 C12         3.8150    3.3255   -2.0842 C.2       1 <0>         0.4853
     22 O5          3.6683    2.2394   -2.6185 O.co2     1 <0>        -0.6671
     23 O6          4.0781    4.3063   -2.7590 O.co2     1 <0>        -0.6546
     24 H1         -0.9567    1.9100    0.0259 H         1 <0>         0.1631
     25 H2          3.3434   -0.5375   -0.0362 H         1 <0>         0.1533
     26 H3          4.3817    1.7399    0.4349 H         1 <0>         0.4119
     27 H4          4.5311    3.9893   -0.1852 H         1 <0>         0.1149
     28 H5         -0.7245    4.3416    0.4545 H         1 <0>         0.1551
@<TRIPOS>BOND
     1    1    6 ar
     2    1    2 ar
     3    1   24 1
     4    2   14 1
     5    2    3 ar
     6    3    4 ar
     7    3   11 1
     8    4    5 ar
     9    4   25 1
    10    5    6 ar
    11    5   10 1
    12    6    7 1
    13    7    8 2
    14    7    9 1
    15   11   12 1
    16   11   26 1
    17   12   13 1
    18   12   21 1
    19   12   27 1
    20   13   17 1
    21   13   14 1
    22   14   15 2
    23   15   16 1
    24   15   28 1
    25   16   17 2
    26   16   18 1
    27   18   19 2
    28   18   20 1
    29   21   22 2
    30   21   23 1
@<TRIPOS>MOLECULE
CHEMBL450008
   28    30     0     0     0
SMALL
USER_CHARGES

@<TRIPOS>ATOM
      1 C1         -0.0167    1.3786    0.0096 C.ar      1 <0>         0.0023
      2 C2          1.1794    2.0765    0.0019 C.ar      1 <0>        -0.0488
      3 C3          2.4083    1.3868   -0.0200 C.ar      1 <0>         0.2929
      4 C4          2.4087    0.0035   -0.0209 C.ar      1 <0>        -0.1679
      5 C5          1.2084   -0.6855   -0.0104 C.ar      1 <0>         0.0554
      6 C6          0.0021   -0.0041    0.0020 C.ar      1 <0>        -0.1010
      7 N1         -1.2713   -0.7589    0.0071 N.pl3     1 <0>         0.0537
      8 O1         -2.3251   -0.1665    0.0180 O.2       1 <0>        -0.1826
      9 O2         -1.2574   -1.9678    0.0005 O.3       1 <0>        -0.1658
     10 Cl1         1.2144   -2.4215   -0.0129 Cl        1 <0>        -0.0282
     11 N2          3.5936    2.1195   -0.0558 N.pl3     1 <0>        -0.7037
     12 C7          3.6819    3.4497    0.5605 C.3       1 <0>         0.3182
     13 N3          2.4467    4.1944    0.2799 N.pl3     1 <0>        -0.2887
     14 C8          1.2555    3.5494    0.0242 C.2       1 <0>        -0.0041
     15 C9          0.3147    4.4967   -0.1730 C.2       1 <0>        -0.1529
     16 C10         0.9962    5.7315   -0.0347 C.2       1 <0>        -0.0311
     17 N4          2.2618    5.4567    0.2310 N.2       1 <0>        -0.2121
     18 C11         0.4033    7.0748   -0.1646 C.2       1 <0>         0.5689
     19 O3         -0.7877    7.1960   -0.4154 O.co2     1 <0>        -0.6895
     20 O4          1.1024    8.0682   -0.0216 O.co2     1 <0>        -0.6777
     21 C12         3.8545    3.3038    2.0505 C.2       1 <0>         0.4842
     22 O5          3.8999    2.1940    2.5532 O.co2     1 <0>        -0.6690
     23 O6          3.9488    4.2957    2.7532 O.co2     1 <0>        -0.6518
     24 H1         -0.9567    1.9100    0.0259 H         1 <0>         0.1634
     25 H2          3.3434   -0.5375   -0.0293 H         1 <0>         0.1538
     26 H3          4.3729    1.7448   -0.4953 H         1 <0>         0.4123
     27 H4          4.5339    3.9878    0.1452 H         1 <0>         0.1150
     28 H5         -0.7325    4.3462   -0.3900 H         1 <0>         0.1547
@<TRIPOS>BOND
     1    1    6 ar
     2    1    2 ar
     3    1   24 1
     4    2   14 1
     5    2    3 ar
     6    3    4 ar
     7    3   11 1
     8    4    5 ar
     9    4   25 1
    10    5    6 ar
    11    5   10 1
    12    6    7 1
    13    7    8 2
    14    7    9 1
    15   11   12 1
    16   11   26 1
    17   12   13 1
    18   12   21 1
    19   12   27 1
    20   13   17 1
    21   13   14 1
    22   14   15 2
    23   15   16 1
    24   15   28 1
    25   16   17 2
    26   16   18 1
    27   18   19 2
    28   18   20 1
    29   21   22 2
    30   21   23 1
@<TRIPOS>MOLECULE
CHEMBL162757
   37    39     0     0     0
SMALL
USER_CHARGES

@<TRIPOS>ATOM
      1 C1         -0.0824    1.2319    0.0401 C.ar      1 <0>        -0.1991
      2 C2          1.0162    2.0780    0.0207 C.ar      1 <0>        -0.0767
      3 C3          2.2948    1.5628   -0.0248 C.ar      1 <0>        -0.2263
      4 C4          2.4909    0.1872   -0.0515 C.ar      1 <0>         0.2437
      5 C5          1.3802   -0.6733   -0.0319 C.ar      1 <0>        -0.2122
      6 C6          0.0900   -0.1336    0.0142 C.ar      1 <0>        -0.0379
      7 C7          1.5723   -2.1308   -0.0597 C.2       1 <0>         0.5316
      8 O1          0.6048   -2.8737   -0.1559 O.co2     1 <0>        -0.6805
      9 O2          2.6997   -2.6008    0.0133 O.co2     1 <0>        -0.6918
     10 N1          3.7758   -0.3335   -0.0977 N.pl3     1 <0>        -0.7325
     11 C8          4.9247    0.5634   -0.2463 C.3       1 <0>         0.1573
     12 C9          6.1950   -0.2470   -0.2687 C.ar      1 <0>        -0.0944
     13 C10         6.9637   -0.3561    0.8723 C.ar      1 <0>        -0.0180
     14 C11         8.1315   -1.0996    0.8579 C.ar      1 <0>        -0.0438
     15 C12         8.5355   -1.7371   -0.2975 C.ar      1 <0>        -0.0510
     16 C13         7.7697   -1.6342   -1.4533 C.ar      1 <0>         0.1165
     17 C14         6.5890   -0.8891   -1.4372 C.ar      1 <0>         0.1983
     18 N2          5.8056   -0.7786   -2.5826 N.am      1 <0>        -0.6267
     19 C15         6.1803   -1.3981   -3.7203 C.2       1 <0>         0.5110
     20 C16         7.4384   -2.1991   -3.7358 C.2       1 <0>         0.5155
     21 N3          8.1840   -2.2797   -2.6149 N.am      1 <0>        -0.6296
     22 O3          7.7931   -2.7646   -4.7505 O.2       1 <0>        -0.4583
     23 O4          5.4999   -1.3050   -4.7221 O.2       1 <0>        -0.4472
     24 N4          8.9500   -1.2108    2.0862 N.pl3     1 <0>         0.0400
     25 O5          8.5983   -0.6529    3.0995 O.2       1 <0>        -0.1505
     26 O6          9.9702   -1.8595    2.0762 O.3       1 <0>        -0.1599
     27 H1         -1.0788    1.6466    0.0803 H         1 <0>         0.1093
     28 H2          0.8695    3.1478    0.0409 H         1 <0>         0.1099
     29 H3          3.1445    2.2292   -0.0401 H         1 <0>         0.1114
     30 H4         -0.7694   -0.7875    0.0299 H         1 <0>         0.1233
     31 H5          3.9137   -1.2913   -0.0317 H         1 <0>         0.4246
     32 H6          4.8325    1.1204   -1.1787 H         1 <0>         0.0661
     33 H7          4.9527    1.2598    0.5917 H         1 <0>         0.0817
     34 H8          6.6533    0.1406    1.7796 H         1 <0>         0.1678
     35 H9          9.4473   -2.3160   -0.3040 H         1 <0>         0.1687
     36 H10         9.0039   -2.7980   -2.6149 H         1 <0>         0.4271
     37 H11         4.9890   -0.2556   -2.5623 H         1 <0>         0.4329
@<TRIPOS>BOND
     1    1    6 ar
     2    1    2 ar
     3    1   27 1
     4    2    3 ar
     5    2   28 1
     6    3    4 ar
     7    3   29 1
     8    4    5 ar
     9    4   10 1
    10    5    6 ar
    11    5    7 1
    12    6   30 1
    13    7    8 2
    14    7    9 1
    15   10   11 1
    16   10   31 1
    17   11   12 1
    18   11   32 1
    19   11   33 1
    20   12   17 ar
    21   12   13 ar
    22   13   14 ar
    23   13   34 1
    24   14   15 ar
    25   14   24 1
    26   15   16 ar
    27   15   35 1
    28   16   21 1
    29   16   17 ar
    30   17   18 1
    31   18   19 am
    32   18   37 1
    33   19   20 1
    34   19   23 2
    35   20   21 am
    36   20   22 2
    37   21   36 1
    38   24   25 2
    39   24   26 1
@<TRIPOS>MOLECULE
CHEMBL276709
   56    59     0     0     0
SMALL
USER_CHARGES

@<TRIPOS>ATOM
      1 C1         -0.1762    2.0164    0.8043 C.ar      1 <0>        -0.1260
      2 C2          1.0579    2.6255    0.6737 C.ar      1 <0>        -0.1191
      3 C3          2.1983    1.8554    0.5426 C.ar      1 <0>        -0.1168
      4 C4          2.1048    0.4762    0.5426 C.ar      1 <0>        -0.0817
      5 C5          0.8709   -0.1329    0.6741 C.ar      1 <0>        -0.1163
      6 C6         -0.2697    0.6373    0.8038 C.ar      1 <0>        -0.1184
      7 C7          3.3480   -0.3633    0.3988 C.3       1 <0>        -0.0643
      8 C8          3.9274   -0.6582    1.7838 C.3       1 <0>        -0.1365
      9 C9          5.1706   -1.4977    1.6399 C.2       1 <0>         0.5115
     10 O1          5.5553   -1.8277    0.5381 O.2       1 <0>        -0.5463
     11 N1          5.8549   -1.8818    2.7357 N.am      1 <0>        -0.7259
     12 C10         7.0634   -2.6980    2.5958 C.3       1 <0>         0.1980
     13 C11         7.6341   -2.9884    3.9600 C.2       1 <0>        -0.1836
     14 C12         8.5751   -2.2023    4.6547 C.2       1 <0>        -0.1634
     15 C13         8.8190   -2.8103    5.8335 C.2       1 <0>        -0.0065
     16 N2          8.0618   -3.9451    5.8928 N.pl3     1 <0>        -0.4108
     17 C14         7.3333   -4.0451    4.7421 C.2       1 <0>         0.0624
     18 C15         8.0333   -4.8544    6.9603 C.ar      1 <0>         0.2068
     19 C16         7.6856   -4.4204    8.2295 C.ar      1 <0>        -0.1200
     20 C17         7.6566   -5.3204    9.2875 C.ar      1 <0>         0.2254
     21 C18         7.9793   -6.6613    9.0667 C.ar      1 <0>         0.1123
     22 C19         8.3275   -7.0877    7.7896 C.ar      1 <0>        -0.0414
     23 C20         8.3484   -6.1908    6.7423 C.ar      1 <0>        -0.0628
     24 N3          8.7134   -6.6510    5.3835 N.pl3     1 <0>         0.0400
     25 O2          8.8710   -7.8298    5.1665 O.2       1 <0>        -0.1679
     26 O3          8.8538   -5.8479    4.4907 O.3       1 <0>        -0.1344
     27 N4          7.9559   -7.5770   10.1158 N.am      1 <0>        -0.6303
     28 H1          8.1818   -8.5061    9.9528 H         1 <0>         0.4247
     29 C21         7.6201   -7.1738   11.3579 C.2       1 <0>         0.5181
     30 O4          7.5991   -7.9687   12.2762 O.2       1 <0>        -0.4633
     31 C22         7.2752   -5.7422   11.5931 C.2       1 <0>         0.5090
     32 O5          6.9704   -5.3593   12.7048 O.2       1 <0>        -0.4447
     33 N5          7.3063   -4.8767   10.5596 N.am      1 <0>        -0.4898
     34 C23         6.9708   -3.4671   10.7758 C.3       1 <0>         0.0164
     35 C24         5.4912   -3.2660   10.5725 C.2       1 <0>         0.4873
     36 O6          4.7826   -4.2124   10.2747 O.co2     1 <0>        -0.6765
     37 O7          5.0028   -2.1569   10.7060 O.co2     1 <0>        -0.6773
     38 H2         -1.0667    2.6181    0.9112 H         1 <0>         0.1196
     39 H3          1.1309    3.7030    0.6737 H         1 <0>         0.1206
     40 H4          3.1624    2.3313    0.4399 H         1 <0>         0.1218
     41 H5          0.7978   -1.2104    0.6738 H         1 <0>         0.1221
     42 H6         -1.2338    0.1614    0.9061 H         1 <0>         0.1209
     43 H7          3.0978   -1.3009   -0.0976 H         1 <0>         0.0799
     44 H8          4.0846    0.1772   -0.1957 H         1 <0>         0.0798
     45 H9          4.1776    0.2795    2.2801 H         1 <0>         0.0947
     46 H10         3.1907   -1.1987    2.3782 H         1 <0>         0.0949
     47 H11         5.5472   -1.6179    3.6169 H         1 <0>         0.4036
     48 H12         6.8132   -3.6356    2.0995 H         1 <0>         0.0716
     49 H13         7.8000   -2.1575    2.0014 H         1 <0>         0.0745
     50 H14         9.0199   -1.2817    4.3066 H         1 <0>         0.1424
     51 H15         9.4961   -2.4601    6.5985 H         1 <0>         0.1654
     52 H16         6.6384   -4.8353    4.4992 H         1 <0>         0.1562
     53 H17         7.4374   -3.3826    8.3962 H         1 <0>         0.1703
     54 H18         8.5777   -8.1241    7.6169 H         1 <0>         0.1722
     55 H19         7.2401   -3.1814   11.7926 H         1 <0>         0.1061
     56 H20         7.5222   -2.8495   10.0668 H         1 <0>         0.0954
@<TRIPOS>BOND
     1    1    6 ar
     2    1    2 ar
     3    1   38 1
     4    2    3 ar
     5    2   39 1
     6    3    4 ar
     7    3   40 1
     8    4    5 ar
     9    4    7 1
    10    5    6 ar
    11    5   41 1
    12    6   42 1
    13    7    8 1
    14    7   43 1
    15    7   44 1
    16    8    9 1
    17    8   45 1
    18    8   46 1
    19    9   10 2
    20    9   11 am
    21   11   12 1
    22   11   47 1
    23   12   13 1
    24   12   48 1
    25   12   49 1
    26   13   17 2
    27   13   14 1
    28   14   15 2
    29   14   50 1
    30   15   16 1
    31   15   51 1
    32   16   17 1
    33   16   18 1
    34   17   52 1
    35   18   23 ar
    36   18   19 ar
    37   19   20 ar
    38   19   53 1
    39   20   33 1
    40   20   21 ar
    41   21   22 ar
    42   21   27 1
    43   22   23 ar
    44   22   54 1
    45   23   24 1
    46   24   25 2
    47   24   26 1
    48   27   28 1
    49   27   29 am
    50   29   30 2
    51   29   31 1
    52   31   32 2
    53   31   33 am
    54   33   34 1
    55   34   35 1
    56   34   55 1
    57   34   56 1
    58   35   36 2
    59   35   37 1
@<TRIPOS>MOLECULE
CHEMBL276709
   55    58     0     0     0
SMALL
USER_CHARGES

@<TRIPOS>ATOM
      1 C1          0.3408    2.3672    0.6255 C.ar      1 <0>        -0.1282
      2 C2          1.5974    2.9379    0.5476 C.ar      1 <0>        -0.1198
      3 C3          2.7169    2.1333    0.4467 C.ar      1 <0>        -0.1167
      4 C4          2.5798    0.7580    0.4241 C.ar      1 <0>        -0.0784
      5 C5          1.3233    0.1872    0.5029 C.ar      1 <0>        -0.1164
      6 C6          0.2037    0.9919    0.6024 C.ar      1 <0>        -0.1192
      7 C7          3.8002   -0.1192    0.3131 C.3       1 <0>        -0.0655
      8 C8          4.3194   -0.4503    1.7137 C.3       1 <0>        -0.1353
      9 C9          5.5398   -1.3274    1.6027 C.2       1 <0>         0.5083
     10 O1          5.9535   -1.6555    0.5109 O.2       1 <0>        -0.5509
     11 N1          6.1715   -1.7473    2.7168 N.am      1 <0>        -0.7199
     12 C10         7.3578   -2.6001    2.6088 C.3       1 <0>         0.2012
     13 C11         7.8693   -2.9261    3.9884 C.2       1 <0>        -0.1954
     14 C12         8.8092   -2.1794    4.7272 C.2       1 <0>        -0.1879
     15 C13         8.9910   -2.8096    5.9053 C.2       1 <0>         0.0423
     16 N2          8.1965   -3.9206    5.9219 N.pl3     1 <0>        -0.3850
     17 C14         7.5071   -3.9824    4.7442 C.2       1 <0>         0.0224
     18 C15         8.1005   -4.8401    6.9732 C.ar      1 <0>         0.1204
     19 C16         8.3884   -6.1759    6.7487 C.ar      1 <0>        -0.1119
     20 C17         8.2930   -7.0878    7.7924 C.ar      1 <0>         0.1419
     21 C18         7.9042   -6.6471    9.0711 C.ar      1 <0>         0.1728
     22 C19         7.6172   -5.2890    9.2756 C.ar      1 <0>        -0.0586
     23 C20         7.7210   -4.4054    8.2424 C.ar      1 <0>        -0.0500
     24 N3          7.4227   -2.9733    8.4688 N.pl3     1 <0>         0.0480
     25 O2          7.2118   -2.5694    9.5887 O.2       1 <0>        -0.1888
     26 O3          7.3899   -2.2075    7.5338 O.3       1 <0>        -0.1618
     27 N4          7.8065   -7.5173   10.0964 N.2       1 <0>        -0.6063
     28 C21         8.0686   -8.7866    9.9303 C.2       1 <0>         0.4291
     29 O4          7.9627   -9.6416   10.9766 O.3       1 <0>        -0.6267
     30 C22         8.4783   -9.2899    8.6087 C.2       1 <0>         0.4787
     31 O5          8.7238  -10.4715    8.4478 O.2       1 <0>        -0.5082
     32 N5          8.5791   -8.4234    7.5772 N.am      1 <0>        -0.4860
     33 C23         8.9842   -8.8922    6.2497 C.3       1 <0>         0.0236
     34 C24        10.4841   -8.8148    6.1257 C.2       1 <0>         0.4889
     35 O6         11.1527   -8.4059    7.0596 O.co2     1 <0>        -0.6745
     36 O7         11.0290   -9.1610    5.0914 O.co2     1 <0>        -0.6984
     37 H1         -0.5335    2.9957    0.7089 H         1 <0>         0.1183
     38 H2          1.7045    4.0125    0.5653 H         1 <0>         0.1198
     39 H3          3.6986    2.5792    0.3852 H         1 <0>         0.1222
     40 H4          1.2161   -0.8873    0.4849 H         1 <0>         0.1226
     41 H5         -0.7781    0.5460    0.6636 H         1 <0>         0.1200
     42 H6          3.5386   -1.0419   -0.2049 H         1 <0>         0.0801
     43 H7          4.5746    0.4049   -0.2470 H         1 <0>         0.0799
     44 H8          4.5811    0.4724    2.2317 H         1 <0>         0.0935
     45 H9          3.5450   -0.9744    2.2738 H         1 <0>         0.0933
     46 H10         5.8406   -1.4850    3.5900 H         1 <0>         0.4042
     47 H11         7.0962   -3.5227    2.0908 H         1 <0>         0.0677
     48 H12         8.1323   -2.0760    2.0487 H         1 <0>         0.0706
     49 H13         9.2951   -1.2693    4.4080 H         1 <0>         0.1336
     50 H14         9.6511   -2.4912    6.6986 H         1 <0>         0.1501
     51 H15         6.7967   -4.7467    4.4656 H         1 <0>         0.1578
     52 H16         8.6860   -6.5079    5.7650 H         1 <0>         0.1459
     53 H17         7.3181   -4.9423   10.2538 H         1 <0>         0.1583
     54 H18         8.6613   -9.9245    6.1147 H         1 <0>         0.0927
     55 H19         8.5237   -8.2647    5.4866 H         1 <0>         0.0817
@<TRIPOS>BOND
     1    1    6 ar
     2    1    2 ar
     3    1   37 1
     4    2    3 ar
     5    2   38 1
     6    3    4 ar
     7    3   39 1
     8    4    5 ar
     9    4    7 1
    10    5    6 ar
    11    5   40 1
    12    6   41 1
    13    7    8 1
    14    7   42 1
    15    7   43 1
    16    8    9 1
    17    8   44 1
    18    8   45 1
    19    9   10 2
    20    9   11 am
    21   11   12 1
    22   11   46 1
    23   12   13 1
    24   12   47 1
    25   12   48 1
    26   13   17 2
    27   13   14 1
    28   14   15 2
    29   14   49 1
    30   15   16 1
    31   15   50 1
    32   16   17 1
    33   16   18 1
    34   17   51 1
    35   18   23 ar
    36   18   19 ar
    37   19   20 ar
    38   19   52 1
    39   20   32 1
    40   20   21 ar
    41   21   22 ar
    42   21   27 1
    43   22   23 ar
    44   22   53 1
    45   23   24 1
    46   24   25 2
    47   24   26 1
    48   27   28 2
    49   28   29 1
    50   28   30 1
    51   30   31 2
    52   30   32 am
    53   32   33 1
    54   33   34 1
    55   33   54 1
    56   33   55 1
    57   34   35 2
    58   34   36 1
@<TRIPOS>MOLECULE
CHEMBL341209
   32    35     0     0     0
SMALL
USER_CHARGES

@<TRIPOS>ATOM
      1 C1         -0.0226    0.3495    0.5214 C.2       1 <0>        -0.2217
      2 C2          1.2616    0.0945    0.8931 C.2       1 <0>         0.2293
      3 N1          2.0775    0.7211    0.0233 N.pl3     1 <0>        -0.2527
      4 N2          1.2777    1.3849   -0.9162 N.am      1 <0>        -0.3106
      5 C3          0.0086    1.1558   -0.6088 C.2       1 <0>         0.2124
      6 C4          1.7203    2.1264   -1.9496 C.2       1 <0>         0.5082
      7 O1          0.9305    2.7322   -2.6441 O.2       1 <0>        -0.3930
      8 C5          3.4786    0.7112    0.0533 C.ar      1 <0>         0.0571
      9 C6          4.1810    1.9032   -0.0233 C.ar      1 <0>        -0.0513
     10 C7          5.5698    1.8939    0.0068 C.ar      1 <0>         0.1446
     11 C8          6.2548    0.6818    0.1139 C.ar      1 <0>         0.2197
     12 C9          5.5424   -0.5103    0.1898 C.ar      1 <0>        -0.1012
     13 C10         4.1630   -0.4955    0.1658 C.ar      1 <0>         0.0152
     14 Cl1         3.2790   -1.9860    0.2687 Cl        1 <0>        -0.0121
     15 N3          7.6468    0.6542    0.1450 N.am      1 <0>        -0.6344
     16 C11         8.3514    1.8017    0.0726 C.2       1 <0>         0.6067
     17 C12         7.6353    3.0855   -0.0401 C.2       1 <0>         0.1371
     18 N4          6.2715    3.0961   -0.0707 N.pl3     1 <0>        -0.2658
     19 N5          5.8858    4.3213   -0.1725 N.2       1 <0>        -0.2598
     20 C13         6.9495    5.1034   -0.2098 C.2       1 <0>         0.1963
     21 N6          8.0423    4.3342   -0.1268 N.2       1 <0>        -0.3719
     22 C14         6.9358    6.5760   -0.3227 C.2       1 <0>         0.5698
     23 O2          5.8715    7.1741   -0.3910 O.co2     1 <0>        -0.6464
     24 O3          7.9889    7.1971   -0.3480 O.co2     1 <0>        -0.6301
     25 O4          9.5672    1.7778    0.1005 O.2       1 <0>        -0.4389
     26 H1         -0.9106   -0.0153    1.0162 H         1 <0>         0.2144
     27 H2          1.5718   -0.5043    1.7366 H         1 <0>         0.2404
     28 H3         -0.8512    1.5308   -1.1440 H         1 <0>         0.2455
     29 H4          2.7781    2.1819   -2.1603 H         1 <0>         0.1979
     30 H5          3.6489    2.8393   -0.1068 H         1 <0>         0.1727
     31 H6          6.0699   -1.4492    0.2720 H         1 <0>         0.1832
     32 H7          8.1115   -0.1940    0.2193 H         1 <0>         0.4394
@<TRIPOS>BOND
     1    1    5 1
     2    1    2 2
     3    1   26 1
     4    2    3 1
     5    2   27 1
     6    3    4 1
     7    3    8 1
     8    4    5 2
     9    4    6 am
    10    5   28 1
    11    6    7 2
    12    6   29 1
    13    8   13 ar
    14    8    9 ar
    15    9   10 ar
    16    9   30 1
    17   10   18 1
    18   10   11 ar
    19   11   12 ar
    20   11   15 1
    21   12   13 ar
    22   12   31 1
    23   13   14 1
    24   15   16 am
    25   15   32 1
    26   16   17 1
    27   16   25 2
    28   17   21 2
    29   17   18 1
    30   18   19 1
    31   19   20 2
    32   20   21 1
    33   20   22 1
    34   22   23 2
    35   22   24 1
@<TRIPOS>MOLECULE
CHEMBL341209
   31    34     0     0     0
SMALL
USER_CHARGES

@<TRIPOS>ATOM
      1 C1         -0.0224    0.3500    0.5224 C.2       1 <0>        -0.2284
      2 C2          1.2618    0.0959    0.8942 C.2       1 <0>         0.2140
      3 N1          2.0775    0.7214    0.0230 N.pl3     1 <0>        -0.2072
      4 N2          1.2772    1.3834   -0.9174 N.am      1 <0>        -0.3182
      5 C3          0.0084    1.1545   -0.6092 C.2       1 <0>         0.1770
      6 C4          1.7194    2.1228   -1.9524 C.2       1 <0>         0.5155
      7 O1          0.9293    2.7274   -2.6477 O.2       1 <0>        -0.4156
      8 C5          3.4773    0.7118    0.0526 C.ar      1 <0>        -0.0496
      9 C6          4.1769    1.9044   -0.0244 C.ar      1 <0>        -0.0301
     10 C7          5.5658    1.8939    0.0050 C.ar      1 <0>         0.0435
     11 C8          6.2535    0.6723    0.1128 C.ar      1 <0>         0.2627
     12 C9          5.5259   -0.5237    0.1895 C.ar      1 <0>        -0.1052
     13 C10         4.1615   -0.4984    0.1652 C.ar      1 <0>         0.0267
     14 Cl1         3.2707   -1.9848    0.2685 Cl        1 <0>        -0.0573
     15 N3          7.6089    0.6406    0.1427 N.2       1 <0>        -0.5921
     16 C11         8.3153    1.7424    0.0727 C.2       1 <0>         0.5246
     17 C12         7.6406    3.0383   -0.0400 C.2       1 <0>         0.1368
     18 N4          6.2743    3.0813   -0.0719 N.pl3     1 <0>        -0.2467
     19 N5          5.9170    4.3131   -0.1738 N.2       1 <0>        -0.2899
     20 C13         6.9967    5.0723   -0.2103 C.2       1 <0>         0.1651
     21 N6          8.0743    4.2812   -0.1266 N.2       1 <0>        -0.4077
     22 C14         7.0132    6.5454   -0.3231 C.2       1 <0>         0.5775
     23 O2          5.9615    7.1652   -0.3920 O.co2     1 <0>        -0.6649
     24 O3          8.0787    7.1448   -0.3476 O.co2     1 <0>        -0.6471
     25 O4          9.6680    1.6833    0.1051 O.3       1 <0>        -0.5639
     26 H1         -0.9102   -0.0141    1.0180 H         1 <0>         0.2042
     27 H2          1.5723   -0.5017    1.7385 H         1 <0>         0.2334
     28 H3         -0.8516    1.5281   -1.1451 H         1 <0>         0.2336
     29 H4          2.7771    2.1779   -2.1638 H         1 <0>         0.1963
     30 H5          3.6442    2.8402   -0.1075 H         1 <0>         0.1464
     31 H6          6.0461   -1.4666    0.2724 H         1 <0>         0.1666
@<TRIPOS>BOND
     1    1    5 1
     2    1    2 2
     3    1   26 1
     4    2    3 1
     5    2   27 1
     6    3    4 1
     7    3    8 1
     8    4    5 2
     9    4    6 am
    10    5   28 1
    11    6    7 2
    12    6   29 1
    13    8   13 ar
    14    8    9 ar
    15    9   10 ar
    16    9   30 1
    17   10   18 1
    18   10   11 ar
    19   11   12 ar
    20   11   15 1
    21   12   13 ar
    22   12   31 1
    23   13   14 1
    24   15   16 2
    25   16   17 1
    26   16   25 1
    27   17   21 2
    28   17   18 1
    29   18   19 1
    30   19   20 2
    31   20   21 1
    32   20   22 1
    33   22   23 2
    34   22   24 1
@<TRIPOS>MOLECULE
CHEMBL330594
   39    43     0     0     0
SMALL
USER_CHARGES

@<TRIPOS>ATOM
      1 C1         -0.0166    1.3749    0.0096 C.ar      1 <0>        -0.0812
      2 C2          1.1682    2.0897    0.0021 C.ar      1 <0>        -0.0806
      3 C3          2.3820    1.4239   -0.0129 C.ar      1 <0>        -0.0858
      4 C4          2.4109    0.0474   -0.0206 C.ar      1 <0>        -0.1197
      5 C5          1.2233   -0.6829   -0.0138 C.ar      1 <0>        -0.0560
      6 C6          0.0021   -0.0041    0.0020 C.ar      1 <0>        -0.0648
      7 C7          1.5380   -2.1315   -0.0265 C.2       1 <0>         0.2279
      8 C8          2.8682   -2.3163   -0.0415 C.2       1 <0>        -0.0746
      9 N1          3.4165   -3.5849   -0.0573 N.pl3     1 <0>        -0.3543
     10 C9          4.6974   -4.0376   -0.0770 C.2       1 <0>        -0.0551
     11 C10         4.6409   -5.3931   -0.0857 C.2       1 <0>         0.0235
     12 N2          3.3614   -5.7622   -0.0720 N.2       1 <0>        -0.3945
     13 C11         2.6023   -4.6861   -0.0552 C.2       1 <0>         0.1510
     14 C12         1.1468   -4.4831   -0.0361 C.2       1 <0>         0.5982
     15 N3          0.6689   -3.2232   -0.0242 N.am      1 <0>        -0.6255
     16 O1          0.3875   -5.4349   -0.0323 O.2       1 <0>        -0.4477
     17 C13         3.5314   -0.9585   -0.0360 C.3       1 <0>         0.1949
     18 C14         4.3942   -0.8065    1.2158 C.3       1 <0>        -0.1254
     19 C15         5.0446    0.5802    1.2166 C.3       1 <0>        -0.1447
     20 C16         5.8460    0.7572   -0.0763 C.3       1 <0>        -0.1485
     21 C17         4.9184    0.5591   -1.2770 C.3       1 <0>        -0.0254
     22 N4          4.3479   -0.7933   -1.2413 N.4       1 <0>        -0.4962
     23 H1         -0.9606    1.8994    0.0259 H         1 <0>         0.1512
     24 H2          1.1461    3.1695    0.0077 H         1 <0>         0.1515
     25 H3          3.3055    1.9838   -0.0190 H         1 <0>         0.1494
     26 H4         -0.9250   -0.5580    0.0087 H         1 <0>         0.1445
     27 H5          5.5920   -3.4325   -0.0847 H         1 <0>         0.1899
     28 H6          5.4901   -6.0602   -0.1014 H         1 <0>         0.1992
     29 H7          3.7707   -0.9165    2.1031 H         1 <0>         0.1175
     30 H8          5.1699   -1.5723    1.2184 H         1 <0>         0.0955
     31 H9          4.2708    1.3458    1.2736 H         1 <0>         0.0910
     32 H10         5.7116    0.6696    2.0741 H         1 <0>         0.1047
     33 H11         6.2711    1.7604   -0.1065 H         1 <0>         0.1203
     34 H12         6.6484    0.0202   -0.1109 H         1 <0>         0.0926
     35 H13         4.1138    1.2934   -1.2390 H         1 <0>         0.1402
     36 H14         5.4851    0.6896   -2.1989 H         1 <0>         0.1433
     37 H15         5.0945   -1.4720   -1.2360 H         1 <0>         0.4260
     38 H16        -0.2894   -3.0736   -0.0126 H         1 <0>         0.4345
     39 H17         3.7727   -0.9361   -2.0579 H         1 <0>         0.4332
@<TRIPOS>BOND
     1    1    6 ar
     2    1    2 ar
     3    1   23 1
     4    2    3 ar
     5    2   24 1
     6    3    4 ar
     7    3   25 1
     8    4   17 1
     9    4    5 ar
    10    5    6 ar
    11    5    7 1
    12    6   26 1
    13    7   15 1
    14    7    8 2
    15    8    9 1
    16    8   17 1
    17    9   13 1
    18    9   10 1
    19   10   11 2
    20   10   27 1
    21   11   12 1
    22   11   28 1
    23   12   13 2
    24   13   14 1
    25   14   15 am
    26   14   16 2
    27   15   38 1
    28   17   22 1
    29   17   18 1
    30   18   19 1
    31   18   29 1
    32   18   30 1
    33   19   20 1
    34   19   31 1
    35   19   32 1
    36   20   21 1
    37   20   33 1
    38   20   34 1
    39   21   22 1
    40   21   35 1
    41   21   36 1
    42   22   37 1
    43   22   39 1
@<TRIPOS>MOLECULE
CHEMBL330594
   38    42     0     0     0
SMALL
USER_CHARGES

@<TRIPOS>ATOM
      1 C1         -0.0166    1.3749    0.0096 C.ar      1 <0>        -0.1100
      2 C2          1.1682    2.0897    0.0021 C.ar      1 <0>        -0.0974
      3 C3          2.3820    1.4239   -0.0133 C.ar      1 <0>        -0.0956
      4 C4          2.4108    0.0475   -0.0207 C.ar      1 <0>        -0.0505
      5 C5          1.2233   -0.6829   -0.0134 C.ar      1 <0>        -0.0578
      6 C6          0.0021   -0.0041    0.0020 C.ar      1 <0>        -0.0833
      7 C7          1.5380   -2.1315   -0.0255 C.2       1 <0>         0.1643
      8 C8          2.8683   -2.3163   -0.0404 C.2       1 <0>         0.0108
      9 N1          3.4164   -3.5850   -0.0548 N.pl3     1 <0>        -0.3410
     10 C9          4.6973   -4.0378   -0.0730 C.2       1 <0>        -0.0318
     11 C10         4.6406   -5.3934   -0.0808 C.2       1 <0>        -0.0004
     12 N2          3.3611   -5.7624   -0.0680 N.2       1 <0>        -0.4083
     13 C11         2.6022   -4.6861   -0.0525 C.2       1 <0>         0.1352
     14 C12         1.1466   -4.4831   -0.0352 C.2       1 <0>         0.6010
     15 N3          0.6689   -3.2231   -0.0231 N.am      1 <0>        -0.6278
     16 O1          0.3872   -5.4348   -0.0320 O.2       1 <0>        -0.4824
     17 C13         3.5311   -0.9586   -0.0366 C.3       1 <0>         0.2218
     18 C14         4.3968   -0.8046    1.2131 C.3       1 <0>        -0.1396
     19 C15         5.0613    0.5752    1.2013 C.3       1 <0>        -0.1279
     20 C16         5.8778    0.7281   -0.0850 C.3       1 <0>        -0.1615
     21 C17         4.9581    0.5410   -1.2938 C.3       1 <0>         0.0428
     22 N4          4.3466   -0.7937   -1.2433 N.3       1 <0>        -0.6619
     23 H1         -0.9606    1.8994    0.0259 H         1 <0>         0.1353
     24 H2          1.1461    3.1695    0.0080 H         1 <0>         0.1356
     25 H3          3.3055    1.9839   -0.0197 H         1 <0>         0.1388
     26 H4         -0.9250   -0.5580    0.0084 H         1 <0>         0.1297
     27 H5          5.5919   -3.4328   -0.0800 H         1 <0>         0.1857
     28 H6          5.4898   -6.0606   -0.0949 H         1 <0>         0.1917
     29 H7          3.7731   -0.9006    2.1019 H         1 <0>         0.0774
     30 H8          5.1646   -1.5783    1.2215 H         1 <0>         0.0716
     31 H9          4.2948    1.3492    1.2404 H         1 <0>         0.0761
     32 H10         5.7203    0.6697    2.0645 H         1 <0>         0.0727
     33 H11         6.3231    1.7224   -0.1172 H         1 <0>         0.0764
     34 H12         6.6657   -0.0248   -0.1074 H         1 <0>         0.0652
     35 H13         4.1758    1.2998   -1.2758 H         1 <0>         0.0883
     36 H14         5.5389    0.6399   -2.2108 H         1 <0>         0.0857
     37 H15         5.0486   -1.5157   -1.3067 H         1 <0>         0.3457
     38 H16        -0.2894   -3.0734   -0.0120 H         1 <0>         0.4255
@<TRIPOS>BOND
     1    1    6 ar
     2    1    2 ar
     3    1   23 1
     4    2    3 ar
     5    2   24 1
     6    3    4 ar
     7    3   25 1
     8    4   17 1
     9    4    5 ar
    10    5    6 ar
    11    5    7 1
    12    6   26 1
    13    7   15 1
    14    7    8 2
    15    8    9 1
    16    8   17 1
    17    9   13 1
    18    9   10 1
    19   10   11 2
    20   10   27 1
    21   11   12 1
    22   11   28 1
    23   12   13 2
    24   13   14 1
    25   14   15 am
    26   14   16 2
    27   15   38 1
    28   17   22 1
    29   17   18 1
    30   18   19 1
    31   18   29 1
    32   18   30 1
    33   19   20 1
    34   19   31 1
    35   19   32 1
    36   20   21 1
    37   20   33 1
    38   20   34 1
    39   21   22 1
    40   21   35 1
    41   21   36 1
    42   22   37 1
@<TRIPOS>MOLECULE
CHEMBL330594
   39    43     0     0     0
SMALL
USER_CHARGES

@<TRIPOS>ATOM
      1 C1         -0.0166    1.3749    0.0096 C.ar      1 <0>        -0.0802
      2 C2          1.1682    2.0898    0.0021 C.ar      1 <0>        -0.0819
      3 C3          2.3820    1.4240   -0.0146 C.ar      1 <0>        -0.0712
      4 C4          2.4108    0.0475   -0.0233 C.ar      1 <0>        -0.1310
      5 C5          1.2233   -0.6828   -0.0135 C.ar      1 <0>        -0.0556
      6 C6          0.0021   -0.0041    0.0020 C.ar      1 <0>        -0.0669
      7 C7          1.5382   -2.1314   -0.0222 C.2       1 <0>         0.2273
      8 C8          2.8684   -2.3163   -0.0371 C.2       1 <0>        -0.0674
      9 N1          3.4165   -3.5850   -0.0449 N.pl3     1 <0>        -0.3552
     10 C9          4.6974   -4.0381   -0.0579 C.2       1 <0>        -0.0974
     11 C10         4.6406   -5.3936   -0.0600 C.2       1 <0>         0.0251
     12 N2          3.3609   -5.7625   -0.0488 N.2       1 <0>        -0.3937
     13 C11         2.6021   -4.6861   -0.0395 C.2       1 <0>         0.1550
     14 C12         1.1465   -4.4830   -0.0256 C.2       1 <0>         0.5975
     15 N3          0.6689   -3.2229   -0.0169 N.am      1 <0>        -0.6248
     16 O1          0.3870   -5.4346   -0.0223 O.2       1 <0>        -0.4470
     17 C13         3.5314   -0.9584   -0.0435 C.3       1 <0>         0.1959
     18 C14         4.3648   -0.7920   -1.3133 C.3       1 <0>        -0.1219
     19 C15         5.4787   -1.8434   -1.3292 C.3       1 <0>        -0.1766
     20 C16         6.3146   -1.7051   -0.0535 C.3       1 <0>        -0.1587
     21 C17         5.4028   -1.8535    1.1664 C.3       1 <0>        -0.0606
     22 N4          4.3752   -0.8052    1.1444 N.4       1 <0>        -0.4911
     23 H1         -0.9606    1.8995    0.0259 H         1 <0>         0.1507
     24 H2          1.1460    3.1695    0.0090 H         1 <0>         0.1510
     25 H3          3.3055    1.9839   -0.0213 H         1 <0>         0.1433
     26 H4         -0.9250   -0.5580    0.0085 H         1 <0>         0.1440
     27 H5          5.5920   -3.4332   -0.0656 H         1 <0>         0.2242
     28 H6          5.4897   -6.0609   -0.0691 H         1 <0>         0.2009
     29 H7          3.7269   -0.9246   -2.1872 H         1 <0>         0.1169
     30 H8          4.8052    0.2049   -1.3315 H         1 <0>         0.1038
     31 H9          5.0389   -2.8399   -1.3706 H         1 <0>         0.1050
     32 H10         6.1147   -1.6876   -2.2005 H         1 <0>         0.1089
     33 H11         7.0790   -2.4819   -0.0333 H         1 <0>         0.1259
     34 H12         6.7907   -0.7247   -0.0349 H         1 <0>         0.1063
     35 H13         4.9234   -2.8322    1.1441 H         1 <0>         0.1553
     36 H14         5.9960   -1.7612    2.0762 H         1 <0>         0.1461
     37 H15         4.8203    0.1001    1.1247 H         1 <0>         0.4301
     38 H16        -0.2894   -3.0731   -0.0070 H         1 <0>         0.4349
     39 H17         3.8040   -0.8785    1.9729 H         1 <0>         0.4331
@<TRIPOS>BOND
     1    1    6 ar
     2    1    2 ar
     3    1   23 1
     4    2    3 ar
     5    2   24 1
     6    3    4 ar
     7    3   25 1
     8    4   17 1
     9    4    5 ar
    10    5    6 ar
    11    5    7 1
    12    6   26 1
    13    7   15 1
    14    7    8 2
    15    8    9 1
    16    8   17 1
    17    9   13 1
    18    9   10 1
    19   10   11 2
    20   10   27 1
    21   11   12 1
    22   11   28 1
    23   12   13 2
    24   13   14 1
    25   14   15 am
    26   14   16 2
    27   15   38 1
    28   17   22 1
    29   17   18 1
    30   18   19 1
    31   18   29 1
    32   18   30 1
    33   19   20 1
    34   19   31 1
    35   19   32 1
    36   20   21 1
    37   20   33 1
    38   20   34 1
    39   21   22 1
    40   21   35 1
    41   21   36 1
    42   22   37 1
    43   22   39 1
@<TRIPOS>MOLECULE
CHEMBL330594
   38    42     0     0     0
SMALL
USER_CHARGES

@<TRIPOS>ATOM
      1 C1         -0.0166    1.3750    0.0096 C.ar      1 <0>        -0.1089
      2 C2          1.1681    2.0899    0.0021 C.ar      1 <0>        -0.0971
      3 C3          2.3819    1.4241   -0.0137 C.ar      1 <0>        -0.0851
      4 C4          2.4108    0.0476   -0.0217 C.ar      1 <0>        -0.0609
      5 C5          1.2233   -0.6829   -0.0132 C.ar      1 <0>        -0.0545
      6 C6          0.0021   -0.0041    0.0020 C.ar      1 <0>        -0.0847
      7 C7          1.5383   -2.1315   -0.0215 C.2       1 <0>         0.1601
      8 C8          2.8686   -2.3161   -0.0352 C.2       1 <0>         0.0198
      9 N1          3.4173   -3.5845   -0.0426 N.pl3     1 <0>        -0.3443
     10 C9          4.6985   -4.0368   -0.0551 C.2       1 <0>        -0.0638
     11 C10         4.6425   -5.3924   -0.0571 C.2       1 <0>        -0.0062
     12 N2          3.3630   -5.7619   -0.0462 N.2       1 <0>        -0.4069
     13 C11         2.6035   -4.6860   -0.0372 C.2       1 <0>         0.1349
     14 C12         1.1479   -4.4833   -0.0236 C.2       1 <0>         0.6007
     15 N3          0.6697   -3.2235   -0.0169 N.am      1 <0>        -0.6274
     16 O1          0.3888   -5.4353   -0.0190 O.2       1 <0>        -0.4828
     17 C13         3.5312   -0.9581   -0.0393 C.3       1 <0>         0.2210
     18 C14         4.3699   -0.7915   -1.3057 C.3       1 <0>        -0.1370
     19 C15         5.4948   -1.8310   -1.3084 C.3       1 <0>        -0.1616
     20 C16         6.3338   -1.6654   -0.0383 C.3       1 <0>        -0.1719
     21 C17         5.4320   -1.8222    1.1882 C.3       1 <0>         0.0120
     22 N4          4.3723   -0.8057    1.1513 N.3       1 <0>        -0.6581
     23 H1         -0.9606    1.8994    0.0259 H         1 <0>         0.1352
     24 H2          1.1459    3.1696    0.0083 H         1 <0>         0.1356
     25 H3          3.3054    1.9841   -0.0201 H         1 <0>         0.1311
     26 H4         -0.9250   -0.5580    0.0082 H         1 <0>         0.1295
     27 H5          5.5929   -3.4314   -0.0626 H         1 <0>         0.2227
     28 H6          5.4920   -6.0592   -0.0661 H         1 <0>         0.1923
     29 H7          3.7383   -0.9366   -2.1821 H         1 <0>         0.0774
     30 H8          4.7998    0.2099   -1.3282 H         1 <0>         0.0805
     31 H9          5.0654   -2.8325   -1.3335 H         1 <0>         0.0910
     32 H10         6.1263   -1.6822   -2.1843 H         1 <0>         0.0775
     33 H11         7.1139   -2.4264   -0.0159 H         1 <0>         0.0825
     34 H12         6.7902   -0.6756   -0.0302 H         1 <0>         0.0790
     35 H13         4.9829   -2.8154    1.1842 H         1 <0>         0.1015
     36 H14         6.0253   -1.6956    2.0938 H         1 <0>         0.0896
     37 H15         4.7610    0.1240    1.2027 H         1 <0>         0.3518
     38 H16        -0.2887   -3.0742   -0.0073 H         1 <0>         0.4254
@<TRIPOS>BOND
     1    1    6 ar
     2    1    2 ar
     3    1   23 1
     4    2    3 ar
     5    2   24 1
     6    3    4 ar
     7    3   25 1
     8    4   17 1
     9    4    5 ar
    10    5    6 ar
    11    5    7 1
    12    6   26 1
    13    7   15 1
    14    7    8 2
    15    8    9 1
    16    8   17 1
    17    9   13 1
    18    9   10 1
    19   10   11 2
    20   10   27 1
    21   11   12 1
    22   11   28 1
    23   12   13 2
    24   13   14 1
    25   14   15 am
    26   14   16 2
    27   15   38 1
    28   17   22 1
    29   17   18 1
    30   18   19 1
    31   18   29 1
    32   18   30 1
    33   19   20 1
    34   19   31 1
    35   19   32 1
    36   20   21 1
    37   20   33 1
    38   20   34 1
    39   21   22 1
    40   21   35 1
    41   21   36 1
    42   22   37 1
@<TRIPOS>MOLECULE
CHEMBL418535
   46    49     0     0     0
SMALL
USER_CHARGES

@<TRIPOS>ATOM
      1 C1          0.5488    1.4951   -1.4476 C.ar      1 <0>        -0.2040
      2 C2          1.7501    2.1203   -1.7098 C.ar      1 <0>         0.1179
      3 N1          2.6835    1.5199   -2.4240 N.ar      1 <0>        -0.4987
      4 C3          2.5134    0.3068   -2.9150 C.ar      1 <0>         0.1176
      5 C4          1.3404   -0.3859   -2.6977 C.ar      1 <0>        -0.1732
      6 C5          0.3290    0.2128   -1.9481 C.ar      1 <0>         0.2109
      7 N2         -0.8724   -0.4541   -1.7055 N.am      1 <0>        -0.6862
      8 C6         -0.8754   -1.7875   -1.5097 C.2       1 <0>         0.7025
      9 O1          0.1755   -2.3968   -1.4586 O.2       1 <0>        -0.5668
     10 N3         -2.0433   -2.4456   -1.3705 N.am      1 <0>        -0.7341
     11 C7         -2.0465   -3.8950   -1.1577 C.3       1 <0>         0.2121
     12 C8         -3.4675   -4.3815   -1.0344 C.2       1 <0>        -0.1761
     13 C9         -4.2147   -4.4800    0.1565 C.2       1 <0>        -0.1554
     14 C10        -5.4334   -4.9574   -0.1686 C.2       1 <0>        -0.0116
     15 N4         -5.4667   -5.1578   -1.5190 N.pl3     1 <0>        -0.4186
     16 C11        -4.2590   -4.7968   -2.0443 C.2       1 <0>         0.0619
     17 C12        -6.5612   -5.6478   -2.2462 C.ar      1 <0>         0.2106
     18 C13        -7.7878   -5.0084   -2.1650 C.ar      1 <0>        -0.1231
     19 C14        -8.8726   -5.4928   -2.8854 C.ar      1 <0>         0.1922
     20 C15        -8.7216   -6.6248   -3.6896 C.ar      1 <0>         0.1246
     21 C16        -7.4869   -7.2603   -3.7646 C.ar      1 <0>        -0.0390
     22 C17        -6.4123   -6.7710   -3.0520 C.ar      1 <0>        -0.0461
     23 N5         -5.0985   -7.4472   -3.1403 N.pl3     1 <0>         0.0300
     24 O2         -4.9368   -8.3541   -3.9232 O.2       1 <0>        -0.1500
     25 O3         -4.1871   -7.0924   -2.4296 O.3       1 <0>        -0.1237
     26 N6         -9.7984   -7.1242   -4.4181 N.am      1 <0>        -0.6316
     27 C18       -10.9997   -6.5153   -4.3527 C.2       1 <0>         0.5121
     28 C19       -11.1603   -5.3064   -3.4944 C.2       1 <0>         0.5125
     29 N7        -10.1016   -4.8448   -2.7985 N.am      1 <0>        -0.6329
     30 O4        -12.2342   -4.7435   -3.4225 O.2       1 <0>        -0.4395
     31 O5        -11.9415   -6.9468   -4.9869 O.2       1 <0>        -0.4438
     32 H1         -0.2092    1.9905   -0.8590 H         1 <0>         0.1367
     33 H2          1.9291    3.1138   -1.3260 H         1 <0>         0.1591
     34 H3          3.3023   -0.1493   -3.4945 H         1 <0>         0.1593
     35 H4          1.2074   -1.3781   -3.1029 H         1 <0>         0.1446
     36 H5         -1.7055    0.0421   -1.6778 H         1 <0>         0.4094
     37 H6         -2.8817   -1.9595   -1.4113 H         1 <0>         0.3982
     38 H7         -1.5659   -4.3875   -2.0030 H         1 <0>         0.0766
     39 H8         -1.5017   -4.1292   -0.2431 H         1 <0>         0.0795
     40 H9         -3.8736   -4.2212    1.1480 H         1 <0>         0.1465
     41 H10        -6.2430   -5.1487    0.5201 H         1 <0>         0.1680
     42 H11        -3.9842   -4.8392   -3.0879 H         1 <0>         0.1593
     43 H12        -7.9007   -4.1338   -1.5415 H         1 <0>         0.1711
     44 H13        -7.3682   -8.1361   -4.3853 H         1 <0>         0.1784
     45 H14       -10.1963   -4.0596   -2.2370 H         1 <0>         0.4313
     46 H15        -9.6840   -7.9111   -4.9736 H         1 <0>         0.4316
@<TRIPOS>BOND
     1    1    6 ar
     2    1    2 ar
     3    1   32 1
     4    2    3 ar
     5    2   33 1
     6    3    4 ar
     7    4    5 ar
     8    4   34 1
     9    5    6 ar
    10    5   35 1
    11    6    7 1
    12    7    8 am
    13    7   36 1
    14    8    9 2
    15    8   10 am
    16   10   11 1
    17   10   37 1
    18   11   12 1
    19   11   38 1
    20   11   39 1
    21   12   16 2
    22   12   13 1
    23   13   14 2
    24   13   40 1
    25   14   15 1
    26   14   41 1
    27   15   16 1
    28   15   17 1
    29   16   42 1
    30   17   22 ar
    31   17   18 ar
    32   18   19 ar
    33   18   43 1
    34   19   29 1
    35   19   20 ar
    36   20   21 ar
    37   20   26 1
    38   21   22 ar
    39   21   44 1
    40   22   23 1
    41   23   24 2
    42   23   25 1
    43   26   27 am
    44   26   46 1
    45   27   28 1
    46   27   31 2
    47   28   29 am
    48   28   30 2
    49   29   45 1
@<TRIPOS>MOLECULE
CHEMBL418535
   45    48     0     0     0
SMALL
USER_CHARGES

@<TRIPOS>ATOM
      1 C1          0.7065   -0.3243    1.9535 C.ar      1 <0>        -0.2043
      2 C2          1.9969    0.1417    2.0964 C.ar      1 <0>         0.1156
      3 N1          2.9999   -0.4400    1.4660 N.ar      1 <0>        -0.5018
      4 C3          2.8175   -1.4833    0.6786 C.ar      1 <0>         0.1155
      5 C4          1.5576   -2.0097    0.4829 C.ar      1 <0>        -0.1722
      6 C5          0.4707   -1.4245    1.1306 C.ar      1 <0>         0.2160
      7 N2         -0.8198   -1.9266    0.9593 N.am      1 <0>        -0.6883
      8 C6         -1.0176   -3.2559    0.8570 C.2       1 <0>         0.7022
      9 O1         -0.0858   -4.0224    1.0065 O.2       1 <0>        -0.5735
     10 N3         -2.2483   -3.7354    0.5889 N.am      1 <0>        -0.7292
     11 C7         -2.4633   -5.1802    0.4776 C.3       1 <0>         0.2167
     12 C8         -3.9148   -5.4503    0.1754 C.2       1 <0>        -0.1884
     13 C9         -4.9409   -5.6463    1.1214 C.2       1 <0>        -0.1807
     14 C10        -6.0851   -5.8573    0.4395 C.2       1 <0>         0.0411
     15 N4         -5.8032   -5.7988   -0.8953 N.pl3     1 <0>        -0.4010
     16 C11        -4.4708   -5.5429   -1.0498 C.2       1 <0>         0.0251
     17 C12        -6.7296   -5.9674   -1.9351 C.ar      1 <0>         0.1882
     18 C13        -6.5169   -6.9380   -2.8936 C.ar      1 <0>        -0.1250
     19 C14        -7.4425   -7.1071   -3.9323 C.ar      1 <0>         0.2405
     20 C15        -8.5807   -6.2826   -3.9852 C.ar      1 <0>         0.0467
     21 C16        -8.7775   -5.3099   -3.0100 C.ar      1 <0>        -0.0436
     22 C17        -7.8627   -5.1581   -1.9919 C.ar      1 <0>        -0.1044
     23 N5         -8.0817   -4.1253   -0.9544 N.pl3     1 <0>         0.0526
     24 O2         -9.1178   -3.5029   -0.9301 O.2       1 <0>        -0.1956
     25 O3         -7.2243   -3.9042   -0.1311 O.3       1 <0>        -0.1605
     26 N6         -9.5023   -6.4393   -5.0049 N.am      1 <0>        -0.6301
     27 C18        -9.2904   -7.3905   -5.9402 C.2       1 <0>         0.4779
     28 C19        -8.0849   -8.2325   -5.8470 C.2       1 <0>         0.4315
     29 N7         -7.2363   -8.0556   -4.8696 N.2       1 <0>        -0.6008
     30 O4         -7.8562   -9.1918   -6.7760 O.3       1 <0>        -0.5875
     31 O5        -10.0853   -7.5504   -6.8483 O.2       1 <0>        -0.5062
     32 H1         -0.1092    0.1539    2.4754 H         1 <0>         0.1367
     33 H2          2.1889    0.9935    2.7319 H         1 <0>         0.1576
     34 H3          3.6653   -1.9303    0.1809 H         1 <0>         0.1580
     35 H4          1.4151   -2.8632   -0.1634 H         1 <0>         0.1438
     36 H5         -1.5746   -1.3191    0.9138 H         1 <0>         0.4106
     37 H6         -2.9917   -3.1238    0.4695 H         1 <0>         0.4020
     38 H7         -1.8445   -5.5788   -0.3263 H         1 <0>         0.0715
     39 H8         -2.1923   -5.6613    1.4174 H         1 <0>         0.0742
     40 H9         -4.8309   -5.6308    2.1957 H         1 <0>         0.1380
     41 H10        -7.0566   -6.0412    0.8741 H         1 <0>         0.1524
     42 H11        -3.9515   -5.4355   -1.9906 H         1 <0>         0.1632
     43 H12        -5.6392   -7.5653   -2.8432 H         1 <0>         0.1566
     44 H13        -9.6509   -4.6759   -3.0492 H         1 <0>         0.1516
     45 H14       -10.2897   -5.8744   -5.0474 H         1 <0>         0.4072
@<TRIPOS>BOND
     1    1    6 ar
     2    1    2 ar
     3    1   32 1
     4    2    3 ar
     5    2   33 1
     6    3    4 ar
     7    4    5 ar
     8    4   34 1
     9    5    6 ar
    10    5   35 1
    11    6    7 1
    12    7    8 am
    13    7   36 1
    14    8    9 2
    15    8   10 am
    16   10   11 1
    17   10   37 1
    18   11   12 1
    19   11   38 1
    20   11   39 1
    21   12   16 2
    22   12   13 1
    23   13   14 2
    24   13   40 1
    25   14   15 1
    26   14   41 1
    27   15   16 1
    28   15   17 1
    29   16   42 1
    30   17   22 ar
    31   17   18 ar
    32   18   19 ar
    33   18   43 1
    34   19   29 1
    35   19   20 ar
    36   20   21 ar
    37   20   26 1
    38   21   22 ar
    39   21   44 1
    40   22   23 1
    41   23   24 2
    42   23   25 1
    43   26   27 am
    44   26   45 1
    45   27   28 1
    46   27   31 2
    47   28   29 2
    48   28   30 1
@<TRIPOS>MOLECULE
CHEMBL418535
   45    48     0     0     0
SMALL
USER_CHARGES

@<TRIPOS>ATOM
      1 C1          0.6942   -0.3181    1.9661 C.ar      1 <0>        -0.2041
      2 C2          1.9840    0.1501    2.1079 C.ar      1 <0>         0.1161
      3 N1          2.9876   -0.4314    1.4784 N.ar      1 <0>        -0.5016
      4 C3          2.8066   -1.4764    0.6931 C.ar      1 <0>         0.1155
      5 C4          1.5474   -2.0051    0.4987 C.ar      1 <0>        -0.1727
      6 C5          0.4599   -1.4202    1.1455 C.ar      1 <0>         0.2157
      7 N2         -0.8300   -1.9247    0.9754 N.am      1 <0>        -0.6879
      8 C6         -1.0251   -3.2540    0.8691 C.2       1 <0>         0.7025
      9 O1         -0.0919   -4.0191    1.0170 O.2       1 <0>        -0.5741
     10 N3         -2.2547   -3.7351    0.5989 N.am      1 <0>        -0.7295
     11 C7         -2.4668   -5.1801    0.4834 C.3       1 <0>         0.2172
     12 C8         -3.9176   -5.4521    0.1795 C.2       1 <0>        -0.1887
     13 C9         -4.9440   -5.6529    1.1246 C.2       1 <0>        -0.1816
     14 C10        -6.0874   -5.8641    0.4419 C.2       1 <0>         0.0396
     15 N4         -5.8049   -5.8012   -0.8931 N.pl3     1 <0>        -0.3932
     16 C11        -4.4725   -5.5422   -1.0461 C.2       1 <0>         0.0201
     17 C12        -6.7285   -5.9691   -1.9318 C.ar      1 <0>         0.1199
     18 C13        -6.5148   -6.9428   -2.8930 C.ar      1 <0>        -0.1109
     19 C14        -7.4317   -7.1088   -3.9234 C.ar      1 <0>         0.0989
     20 C15        -8.5717   -6.2858   -3.9829 C.ar      1 <0>         0.1846
     21 C16        -8.7678   -5.3057   -2.9982 C.ar      1 <0>        -0.0515
     22 C17        -7.8617   -5.1589   -1.9900 C.ar      1 <0>        -0.0349
     23 N5         -8.0797   -4.1264   -0.9521 N.pl3     1 <0>         0.0384
     24 O2         -9.1158   -3.5039   -0.9268 O.2       1 <0>        -0.1715
     25 O3         -7.2217   -3.9055   -0.1295 O.3       1 <0>        -0.1503
     26 N6         -9.4728   -6.4325   -4.9752 N.2       1 <0>        -0.5997
     27 C18        -9.3118   -7.3380   -5.9033 C.2       1 <0>         0.4237
     28 C19        -8.1331   -8.2201   -5.8787 C.2       1 <0>         0.4778
     29 N7         -7.2265   -8.0789   -4.8872 N.am      1 <0>        -0.6292
     30 O4         -7.9778   -9.0659   -6.7405 O.2       1 <0>        -0.5052
     31 O5        -10.2317   -7.4659   -6.8903 O.3       1 <0>        -0.6035
     32 H1         -0.1222    0.1599    2.4873 H         1 <0>         0.1371
     33 H2          2.1748    1.0035    2.7417 H         1 <0>         0.1579
     34 H3          3.6550   -1.9232    0.1961 H         1 <0>         0.1579
     35 H4          1.4061   -2.8601   -0.1459 H         1 <0>         0.1435
     36 H5         -1.5862   -1.3186    0.9336 H         1 <0>         0.4110
     37 H6         -2.9993   -3.1247    0.4809 H         1 <0>         0.4024
     38 H7         -1.8468   -5.5751   -0.3214 H         1 <0>         0.0698
     39 H8         -2.1954   -5.6633    1.4219 H         1 <0>         0.0738
     40 H9         -4.8345   -5.6405    2.1990 H         1 <0>         0.1377
     41 H10        -7.0586   -6.0512    0.8756 H         1 <0>         0.1525
     42 H11        -3.9527   -5.4315   -1.9863 H         1 <0>         0.1604
     43 H12        -5.6378   -7.5709   -2.8420 H         1 <0>         0.1454
     44 H13        -9.6399   -4.6698   -3.0363 H         1 <0>         0.1646
     45 H14        -6.4429   -8.6495   -4.8521 H         1 <0>         0.4062
@<TRIPOS>BOND
     1    1    6 ar
     2    1    2 ar
     3    1   32 1
     4    2    3 ar
     5    2   33 1
     6    3    4 ar
     7    4    5 ar
     8    4   34 1
     9    5    6 ar
    10    5   35 1
    11    6    7 1
    12    7    8 am
    13    7   36 1
    14    8    9 2
    15    8   10 am
    16   10   11 1
    17   10   37 1
    18   11   12 1
    19   11   38 1
    20   11   39 1
    21   12   16 2
    22   12   13 1
    23   13   14 2
    24   13   40 1
    25   14   15 1
    26   14   41 1
    27   15   16 1
    28   15   17 1
    29   16   42 1
    30   17   22 ar
    31   17   18 ar
    32   18   19 ar
    33   18   43 1
    34   19   29 1
    35   19   20 ar
    36   20   21 ar
    37   20   26 1
    38   21   22 ar
    39   21   44 1
    40   22   23 1
    41   23   24 2
    42   23   25 1
    43   26   27 2
    44   27   28 1
    45   27   31 1
    46   28   29 am
    47   28   30 2
    48   29   45 1
@<TRIPOS>MOLECULE
CHEMBL1214335
   58    61     0     0     0
SMALL
USER_CHARGES

@<TRIPOS>ATOM
      1 C1         -2.8683    1.4667    1.2164 C.3       1 <0>        -0.1444
      2 C2         -2.8360   -0.0627    1.1905 C.3       1 <0>        -0.5942
      3 C3         -4.2160   -0.5954    0.7997 C.3       1 <0>        -0.1391
      4 S1         -1.6070   -0.6211   -0.0213 S.o2      1 <0>         2.6083
      5 O1         -2.0302   -0.2886   -1.3364 O.2       1 <0>        -0.9525
      6 O2         -0.2976   -0.2932    0.4229 O.2       1 <0>        -0.9510
      7 N1         -1.6716   -2.2747    0.0381 N.pl3     1 <0>        -1.1092
      8 C4         -1.2667   -2.9803    1.2565 C.3       1 <0>         0.1532
      9 C5          0.1419   -3.5898    1.0950 C.3       1 <0>        -0.0978
     10 C6          0.0998   -4.8946    1.8620 C.ar      1 <0>        -0.0904
     11 C7          1.1325   -5.6946    2.3257 C.ar      1 <0>        -0.1011
     12 C8          0.8586   -6.8592    3.0108 C.ar      1 <0>        -0.1012
     13 C9         -0.4640   -7.2341    3.2388 C.ar      1 <0>        -0.0445
     14 C10        -1.4989   -6.4285    2.7724 C.ar      1 <0>        -0.0937
     15 C11        -1.2149   -5.2621    2.0857 C.ar      1 <0>        -0.0991
     16 C12        -2.1442   -4.2294    1.4843 C.3       1 <0>        -0.0857
     17 C13        -0.7678   -8.4863    3.9748 C.ar      1 <0>        -0.0428
     18 C14        -2.0908   -8.8633    4.1974 C.ar      1 <0>        -0.1049
     19 C15        -2.3675  -10.0291    4.8821 C.ar      1 <0>        -0.1206
     20 C16        -1.3344  -10.8230    5.3472 C.ar      1 <0>        -0.1009
     21 C17        -0.0196  -10.4534    5.1296 C.ar      1 <0>        -0.1143
     22 C18         0.2687   -9.2923    4.4409 C.ar      1 <0>        -0.0811
     23 C19         1.1004  -11.3228    5.6401 C.3       1 <0>         0.2026
     24 N2          1.4630  -12.3043    4.6148 N.pl3     1 <0>        -0.9838
     25 C20         0.8227  -13.6090    4.3683 C.3       1 <0>         0.0716
     26 C21         0.9397  -14.0050    2.8846 C.3       1 <0>        -0.1306
     27 C22         2.4212  -13.7084    2.5026 C.3       1 <0>        -0.5932
     28 S2          2.6863  -12.1711    3.4765 S.o2      1 <0>         2.5569
     29 O3          2.3631  -11.0224    2.7049 O.2       1 <0>        -0.9486
     30 O4          3.8994  -12.2467    4.2126 O.2       1 <0>        -0.9561
     31 H1         -3.6068    1.8022    1.9445 H         1 <0>         0.0835
     32 H2         -1.8852    1.8463    1.4948 H         1 <0>         0.0727
     33 H3         -3.1360    1.8413    0.2284 H         1 <0>         0.0734
     34 H4         -2.5683   -0.4373    2.1785 H         1 <0>         0.1340
     35 H5         -4.5195   -0.1559   -0.1504 H         1 <0>         0.0754
     36 H6         -4.1721   -1.6800    0.7008 H         1 <0>         0.0701
     37 H7         -4.9396   -0.3299    1.5705 H         1 <0>         0.0777
     38 H8         -1.9775   -2.7762   -0.7338 H         1 <0>         0.4206
     39 H9         -1.3079   -2.3153    2.1191 H         1 <0>         0.1005
     40 H10         0.3548   -3.7766    0.0424 H         1 <0>         0.0920
     41 H11         0.8929   -2.9246    1.5212 H         1 <0>         0.0885
     42 H12         2.1576   -5.4041    2.1490 H         1 <0>         0.1251
     43 H13         1.6668   -7.4795    3.3693 H         1 <0>         0.1296
     44 H14        -2.5255   -6.7151    2.9465 H         1 <0>         0.1237
     45 H15        -2.9546   -4.0011    2.1765 H         1 <0>         0.0841
     46 H16        -2.5452   -4.5879    0.5363 H         1 <0>         0.0914
     47 H17        -2.8980   -8.2441    3.8350 H         1 <0>         0.1248
     48 H18        -3.3924  -10.3220    5.0554 H         1 <0>         0.1247
     49 H19        -1.5555  -11.7345    5.8826 H         1 <0>         0.1217
     50 H20         1.2958   -9.0069    4.2675 H         1 <0>         0.1270
     51 H21         1.9661  -10.7019    5.8709 H         1 <0>         0.0888
     52 H22         0.7752  -11.8422    6.5415 H         1 <0>         0.0923
     53 H23         1.3080  -14.3683    4.9815 H         1 <0>         0.0788
     54 H24        -0.2308  -13.5489    4.6415 H         1 <0>         0.0947
     55 H25         0.7207  -15.0652    2.7572 H         1 <0>         0.1130
     56 H26         0.2641  -13.4024    2.2774 H         1 <0>         0.0948
     57 H27         3.0838  -14.5096    2.8300 H         1 <0>         0.1428
     58 H28         2.5260  -13.5216    1.4338 H         1 <0>         0.1428
@<TRIPOS>BOND
     1    1    2 1
     2    1   31 1
     3    1   32 1
     4    1   33 1
     5    2    3 1
     6    2    4 1
     7    2   34 1
     8    3   35 1
     9    3   36 1
    10    3   37 1
    11    4    5 2
    12    4    6 2
    13    4    7 1
    14    7    8 1
    15    7   38 1
    16    8   16 1
    17    8    9 1
    18    8   39 1
    19    9   10 1
    20    9   40 1
    21    9   41 1
    22   10   15 ar
    23   10   11 ar
    24   11   12 ar
    25   11   42 1
    26   12   13 ar
    27   12   43 1
    28   13   14 ar
    29   13   17 1
    30   14   15 ar
    31   14   44 1
    32   15   16 1
    33   16   45 1
    34   16   46 1
    35   17   22 ar
    36   17   18 ar
    37   18   19 ar
    38   18   47 1
    39   19   20 ar
    40   19   48 1
    41   20   21 ar
    42   20   49 1
    43   21   22 ar
    44   21   23 1
    45   22   50 1
    46   23   24 1
    47   23   51 1
    48   23   52 1
    49   24   28 1
    50   24   25 1
    51   25   26 1
    52   25   53 1
    53   25   54 1
    54   26   27 1
    55   26   55 1
    56   26   56 1
    57   27   28 1
    58   27   57 1
    59   27   58 1
    60   28   29 2
    61   28   30 2
@<TRIPOS>MOLECULE
CHEMBL1214335
   58    61     0     0     0
SMALL
USER_CHARGES

@<TRIPOS>ATOM
      1 C1          1.0042   -0.9476   -0.9529 C.3       1 <0>        -0.1396
      2 C2          0.1904   -0.1330    0.0546 C.3       1 <0>        -0.5942
      3 C3          0.3196    1.3564   -0.2708 C.3       1 <0>        -0.1441
      4 S1         -1.5535   -0.6234   -0.0392 S.o2      1 <0>         2.6082
      5 O1         -2.2826   -0.0470    1.0357 O.2       1 <0>        -0.9512
      6 O2         -2.0226   -0.5100   -1.3758 O.2       1 <0>        -0.9526
      7 N1         -1.5557   -2.2497    0.2728 N.pl3     1 <0>        -1.1090
      8 C4         -1.1293   -2.7446    1.5841 C.3       1 <0>         0.1529
      9 C5         -2.3482   -3.1422    2.4432 C.3       1 <0>        -0.0977
     10 C6         -1.8939   -4.3446    3.2436 C.ar      1 <0>        -0.0905
     11 C7         -2.4353   -4.9182    4.3835 C.ar      1 <0>        -0.1011
     12 C8         -1.8466   -6.0272    4.9529 C.ar      1 <0>        -0.1012
     13 C9         -0.7011   -6.5751    4.3790 C.ar      1 <0>        -0.0445
     14 C10        -0.1600   -5.9972    3.2340 C.ar      1 <0>        -0.0937
     15 C11        -0.7568   -4.8845    2.6698 C.ar      1 <0>        -0.0991
     16 C12        -0.3708   -4.0815    1.4459 C.3       1 <0>        -0.0857
     17 C13        -0.0608   -7.7684    4.9856 C.ar      1 <0>        -0.0428
     18 C14         1.0880   -8.3121    4.4143 C.ar      1 <0>        -0.1049
     19 C15         1.6796   -9.4217    4.9829 C.ar      1 <0>        -0.1206
     20 C16         1.1341   -9.9942    6.1180 C.ar      1 <0>        -0.1009
     21 C17        -0.0062   -9.4590    6.6890 C.ar      1 <0>        -0.1143
     22 C18        -0.6028   -8.3458    6.1318 C.ar      1 <0>        -0.0811
     23 C19        -0.5951  -10.0887    7.9250 C.3       1 <0>         0.2026
     24 N2         -0.0050   -9.4721    9.1157 N.pl3     1 <0>        -0.9838
     25 C20         1.2643   -9.8387    9.7694 C.3       1 <0>         0.0716
     26 C21         1.8955   -8.6176   10.4639 C.3       1 <0>        -0.1306
     27 C22         0.7210   -7.9353   11.2281 C.3       1 <0>        -0.5932
     28 S2         -0.6312   -8.2001   10.0100 S.o2      1 <0>         2.5570
     29 O3         -0.7178   -7.1071    9.1061 O.2       1 <0>        -0.9485
     30 O4         -1.7883   -8.7198   10.6504 O.2       1 <0>        -0.9561
     31 H1          2.0521   -0.6530   -0.8965 H         1 <0>         0.0779
     32 H2          0.9121   -2.0087   -0.7210 H         1 <0>         0.0710
     33 H3          0.6281   -0.7616   -1.9589 H         1 <0>         0.0751
     34 H4          0.5665   -0.3190    1.0606 H         1 <0>         0.1341
     35 H5          0.0220    1.5294   -1.3050 H         1 <0>         0.0748
     36 H6         -0.3256    1.9308    0.3939 H         1 <0>         0.0712
     37 H7          1.3544    1.6699   -0.1332 H         1 <0>         0.0833
     38 H8         -1.8392   -2.8747   -0.4127 H         1 <0>         0.4207
     39 H9         -0.5164   -2.0025    2.0958 H         1 <0>         0.1003
     40 H10        -2.6230   -2.3255    3.1107 H         1 <0>         0.0884
     41 H11        -3.1901   -3.4093    1.8045 H         1 <0>         0.0922
     42 H12        -3.3231   -4.4936    4.8284 H         1 <0>         0.1251
     43 H13        -2.2719   -6.4699    5.8415 H         1 <0>         0.1296
     44 H14         0.7279   -6.4181    2.7859 H         1 <0>         0.1236
     45 H15        -0.6817   -4.6008    0.5393 H         1 <0>         0.0916
     46 H16         0.7050   -3.9064    1.4323 H         1 <0>         0.0839
     47 H17         1.5145   -7.8662    3.5279 H         1 <0>         0.1248
     48 H18         2.5698   -9.8441    4.5407 H         1 <0>         0.1247
     49 H19         1.6003  -10.8625    6.5598 H         1 <0>         0.1217
     50 H20        -1.4907   -7.9260    6.5811 H         1 <0>         0.1270
     51 H21        -1.6740   -9.9342    7.9326 H         1 <0>         0.0888
     52 H22        -0.3811  -11.1575    7.9254 H         1 <0>         0.0923
     53 H23         1.0748  -10.6149   10.5109 H         1 <0>         0.0787
     54 H24         1.9562  -10.2223    9.0196 H         1 <0>         0.0947
     55 H25         2.6676   -8.9372   11.1638 H         1 <0>         0.1129
     56 H26         2.3131   -7.9349    9.7239 H         1 <0>         0.0948
     57 H27         0.5148   -8.4401   12.1719 H         1 <0>         0.1427
     58 H28         0.9112   -6.8731   11.3819 H         1 <0>         0.1427
@<TRIPOS>BOND
     1    1    2 1
     2    1   31 1
     3    1   32 1
     4    1   33 1
     5    2    3 1
     6    2    4 1
     7    2   34 1
     8    3   35 1
     9    3   36 1
    10    3   37 1
    11    4    5 2
    12    4    6 2
    13    4    7 1
    14    7    8 1
    15    7   38 1
    16    8   16 1
    17    8    9 1
    18    8   39 1
    19    9   10 1
    20    9   40 1
    21    9   41 1
    22   10   15 ar
    23   10   11 ar
    24   11   12 ar
    25   11   42 1
    26   12   13 ar
    27   12   43 1
    28   13   14 ar
    29   13   17 1
    30   14   15 ar
    31   14   44 1
    32   15   16 1
    33   16   45 1
    34   16   46 1
    35   17   22 ar
    36   17   18 ar
    37   18   19 ar
    38   18   47 1
    39   19   20 ar
    40   19   48 1
    41   20   21 ar
    42   20   49 1
    43   21   22 ar
    44   21   23 1
    45   22   50 1
    46   23   24 1
    47   23   51 1
    48   23   52 1
    49   24   28 1
    50   24   25 1
    51   25   26 1
    52   25   53 1
    53   25   54 1
    54   26   27 1
    55   26   55 1
    56   26   56 1
    57   27   28 1
    58   27   57 1
    59   27   58 1
    60   28   29 2
    61   28   30 2
@<TRIPOS>MOLECULE
CHEMBL50267
   20    21     0     0     0
SMALL
USER_CHARGES

@<TRIPOS>ATOM
      1 C1         -0.0168    1.3873    0.0097 C.ar      1 <0>        -0.1736
      2 C2          1.1692    2.0908    0.0021 C.ar      1 <0>         0.0367
      3 C3          2.3892    1.4254   -0.0135 C.ar      1 <0>        -0.1663
      4 C4          2.4321    0.0486   -0.0218 C.ar      1 <0>         0.0637
      5 C5          1.2385   -0.6785   -0.0139 C.ar      1 <0>        -0.2058
      6 C6          0.0021   -0.0041    0.0020 C.ar      1 <0>         0.2316
      7 N1         -1.1676   -0.7266    0.0088 N.pl3     1 <0>        -0.5818
      8 C7         -1.1664   -2.0925    0.0015 C.2       1 <0>         0.1417
      9 C8         -0.0187   -2.8152   -0.0129 C.2       1 <0>        -0.2806
     10 C9          1.2392   -2.1492   -0.0222 C.2       1 <0>         0.4127
     11 O1          2.2837   -2.7778   -0.0360 O.2       1 <0>        -0.4868
     12 C10        -2.4631   -2.8092    0.0100 C.2       1 <0>         0.5240
     13 O2         -2.4860   -4.0311    0.0036 O.co2     1 <0>        -0.6455
     14 O3         -3.5098   -2.1784    0.0233 O.co2     1 <0>        -0.6718
     15 Cl1         3.9586   -0.7779   -0.0425 Cl        1 <0>        -0.0235
     16 Cl2         1.1379    3.8265    0.0117 Cl        1 <0>        -0.0561
     17 H1         -0.9588    1.9154    0.0260 H         1 <0>         0.1482
     18 H2          3.3091    1.9912   -0.0196 H         1 <0>         0.1458
     19 H3         -0.0593   -3.8944   -0.0175 H         1 <0>         0.1596
     20 H4         -2.0149   -0.2546    0.0194 H         1 <0>         0.4278
@<TRIPOS>BOND
     1    1    6 ar
     2    1    2 ar
     3    1   17 1
     4    2    3 ar
     5    2   16 1
     6    3    4 ar
     7    3   18 1
     8    4    5 ar
     9    4   15 1
    10    5   10 1
    11    5    6 ar
    12    6    7 1
    13    7    8 1
    14    7   20 1
    15    8    9 2
    16    8   12 1
    17    9   10 1
    18    9   19 1
    19   10   11 2
    20   12   13 2
    21   12   14 1
@<TRIPOS>MOLECULE
CHEMBL22371
   71    73     0     0     0
SMALL
USER_CHARGES

@<TRIPOS>ATOM
      1 C1         -0.0164    1.3567    0.0095 C.ar      1 <0>        -0.1174
      2 C2          1.1685    2.0906    0.0021 C.ar      1 <0>        -0.1058
      3 C3          2.3785    1.4679   -0.0132 C.ar      1 <0>        -0.1171
      4 C4          2.4378    0.0637   -0.0214 C.ar      1 <0>        -0.0324
      5 C5          1.2328   -0.6827   -0.0134 C.ar      1 <0>        -0.0525
      6 C6          0.0021   -0.0041    0.0020 C.ar      1 <0>        -0.0981
      7 C7          1.2920   -2.0865   -0.0210 C.ar      1 <0>        -0.0926
      8 C8          2.5022   -2.7094   -0.0359 C.ar      1 <0>        -0.1204
      9 C9          3.6867   -1.9757   -0.0433 C.ar      1 <0>        -0.0969
     10 C10         3.6681   -0.6146   -0.0367 C.ar      1 <0>        -0.0719
     11 C11         4.9603    0.1606   -0.0459 C.3       1 <0>        -0.0986
     12 C12         5.3414    0.5186    1.3675 C.2       1 <0>         0.5191
     13 O1          4.6334    0.1777    2.2913 O.2       1 <0>        -0.5074
     14 N1          6.4691    1.2175    1.6049 N.am      1 <0>        -0.6256
     15 C13         7.3338    1.6427    0.4958 C.3       1 <0>         0.1033
     16 C14         8.7613    1.1593    0.7702 C.3       1 <0>        -0.1286
     17 C15         9.2100    1.6607    2.1448 C.3       1 <0>        -0.1152
     18 C16         8.2897    1.0865    3.2244 C.3       1 <0>        -0.1429
     19 C17         6.8539    1.5739    2.9774 C.3       1 <0>         0.1107
     20 C18        10.6479    1.2089    2.4077 C.3       1 <0>        -0.0058
     21 N2         11.1201    1.7892    3.6719 N.4       1 <0>        -0.5118
     22 C19        12.5007    1.3554    3.9244 C.3       1 <0>        -0.0095
     23 C20        12.9925    1.9599    5.2411 C.3       1 <0>        -0.1506
     24 C21        14.4304    1.5081    5.5040 C.3       1 <0>        -0.1496
     25 C22        14.9222    2.1125    6.8207 C.3       1 <0>        -0.0102
     26 N3         16.3028    1.6787    7.0732 N.4       1 <0>        -0.5103
     27 C23        16.7750    2.2591    8.3374 C.3       1 <0>        -0.0049
     28 C24        18.2129    1.8073    8.6003 C.3       1 <0>        -0.1881
     29 C25        18.7047    2.4117    9.9170 C.3       1 <0>        -0.0023
     30 N4         20.0853    1.9779   10.1695 N.4       1 <0>        -0.6386
     31 H1         -0.9634    1.8756    0.0259 H         1 <0>         0.1274
     32 H2          1.1258    3.1698    0.0084 H         1 <0>         0.1234
     33 H3          3.2883    2.0497   -0.0195 H         1 <0>         0.1159
     34 H4         -0.9241   -0.5595    0.0082 H         1 <0>         0.1316
     35 H5          0.3820   -2.6682   -0.0147 H         1 <0>         0.1315
     36 H6          2.5450   -3.7886   -0.0417 H         1 <0>         0.1265
     37 H7          4.6338   -2.4947   -0.0548 H         1 <0>         0.1179
     38 H8          5.7467   -0.4491   -0.4909 H         1 <0>         0.1044
     39 H9          4.8331    1.0722   -0.6299 H         1 <0>         0.1068
     40 H10         6.9734    1.2073   -0.4362 H         1 <0>         0.1015
     41 H11         7.3242    2.7301    0.4212 H         1 <0>         0.0779
     42 H12         8.7858    0.0697    0.7546 H         1 <0>         0.0825
     43 H13         9.4312    1.5498    0.0041 H         1 <0>         0.0913
     44 H14         9.1617    2.7494    2.1678 H         1 <0>         0.1001
     45 H15         8.3186   -0.0024    3.1857 H         1 <0>         0.0851
     46 H16         8.6239    1.4251    4.2051 H         1 <0>         0.0650
     47 H17         6.8060    2.6558    3.1010 H         1 <0>         0.0722
     48 H18         6.1767    1.0931    3.6833 H         1 <0>         0.1037
     49 H19        10.6810    0.1213    2.4725 H         1 <0>         0.1356
     50 H20        11.2889    1.5440    1.5923 H         1 <0>         0.1379
     51 H21        11.0895    2.7960    3.6120 H         1 <0>         0.4308
     52 H22        12.5338    0.2679    3.9891 H         1 <0>         0.1362
     53 H23        13.1417    1.6906    3.1090 H         1 <0>         0.1370
     54 H24        12.9594    3.0474    5.1764 H         1 <0>         0.1012
     55 H25        12.3515    1.6248    6.0565 H         1 <0>         0.1007
     56 H26        14.4635    0.4205    5.5687 H         1 <0>         0.1015
     57 H27        15.0714    1.8432    4.6886 H         1 <0>         0.1017
     58 H28        14.8892    3.2001    6.7560 H         1 <0>         0.1404
     59 H29        14.2812    1.7774    7.6362 H         1 <0>         0.1404
     60 H30        16.3334    0.6720    7.1331 H         1 <0>         0.4344
     61 H31        16.7420    3.3466    8.2727 H         1 <0>         0.1457
     62 H32        16.1340    1.9240    9.1528 H         1 <0>         0.1457
     63 H33        18.2460    0.7197    8.6650 H         1 <0>         0.1137
     64 H34        18.8539    2.1424    7.7849 H         1 <0>         0.1137
     65 H35        18.6717    3.4993    9.8523 H         1 <0>         0.1458
     66 H36        18.0638    2.0766   10.7325 H         1 <0>         0.1458
     67 H37        20.4097    2.3765   11.0378 H         1 <0>         0.4534
     68 H38        20.1159    0.9712   10.2294 H         1 <0>         0.4410
     69 H39        20.6787    2.2881    9.4146 H         1 <0>         0.4410
     70 H40        10.5267    1.4790    4.4268 H         1 <0>         0.4292
     71 H41        16.8962    1.9890    6.3184 H         1 <0>         0.4343
@<TRIPOS>BOND
     1    1    6 ar
     2    1    2 ar
     3    1   31 1
     4    2    3 ar
     5    2   32 1
     6    3    4 ar
     7    3   33 1
     8    4   10 ar
     9    4    5 ar
    10    5    6 ar
    11    5    7 ar
    12    6   34 1
    13    7    8 ar
    14    7   35 1
    15    8    9 ar
    16    8   36 1
    17    9   10 ar
    18    9   37 1
    19   10   11 1
    20   11   12 1
    21   11   38 1
    22   11   39 1
    23   12   13 2
    24   12   14 am
    25   14   19 1
    26   14   15 1
    27   15   16 1
    28   15   40 1
    29   15   41 1
    30   16   17 1
    31   16   42 1
    32   16   43 1
    33   17   18 1
    34   17   20 1
    35   17   44 1
    36   18   19 1
    37   18   45 1
    38   18   46 1
    39   19   47 1
    40   19   48 1
    41   20   21 1
    42   20   49 1
    43   20   50 1
    44   21   22 1
    45   21   51 1
    46   21   70 1
    47   22   23 1
    48   22   52 1
    49   22   53 1
    50   23   24 1
    51   23   54 1
    52   23   55 1
    53   24   25 1
    54   24   56 1
    55   24   57 1
    56   25   26 1
    57   25   58 1
    58   25   59 1
    59   26   27 1
    60   26   60 1
    61   26   71 1
    62   27   28 1
    63   27   61 1
    64   27   62 1
    65   28   29 1
    66   28   63 1
    67   28   64 1
    68   29   30 1
    69   29   65 1
    70   29   66 1
    71   30   67 1
    72   30   68 1
    73   30   69 1
@<TRIPOS>MOLECULE
CHEMBL22371
   70    72     0     0     0
SMALL
USER_CHARGES

@<TRIPOS>ATOM
      1 C1         -0.0164    1.3567    0.0095 C.ar      1 <0>        -0.1175
      2 C2          1.1685    2.0906    0.0021 C.ar      1 <0>        -0.1069
      3 C3          2.3785    1.4679   -0.0132 C.ar      1 <0>        -0.1157
      4 C4          2.4378    0.0637   -0.0214 C.ar      1 <0>        -0.0325
      5 C5          1.2328   -0.6827   -0.0134 C.ar      1 <0>        -0.0524
      6 C6          0.0021   -0.0041    0.0020 C.ar      1 <0>        -0.0989
      7 C7          1.2920   -2.0865   -0.0210 C.ar      1 <0>        -0.0942
      8 C8          2.5022   -2.7094   -0.0359 C.ar      1 <0>        -0.1194
      9 C9          3.6867   -1.9757   -0.0433 C.ar      1 <0>        -0.0974
     10 C10         3.6681   -0.6146   -0.0367 C.ar      1 <0>        -0.0701
     11 C11         4.9603    0.1606   -0.0459 C.3       1 <0>        -0.0992
     12 C12         5.3414    0.5186    1.3675 C.2       1 <0>         0.5189
     13 O1          4.6334    0.1777    2.2913 O.2       1 <0>        -0.5087
     14 N1          6.4691    1.2175    1.6049 N.am      1 <0>        -0.6248
     15 C13         7.3338    1.6427    0.4958 C.3       1 <0>         0.1036
     16 C14         8.7613    1.1593    0.7702 C.3       1 <0>        -0.1286
     17 C15         9.2100    1.6607    2.1448 C.3       1 <0>        -0.1151
     18 C16         8.2897    1.0865    3.2244 C.3       1 <0>        -0.1436
     19 C17         6.8539    1.5739    2.9774 C.3       1 <0>         0.1109
     20 C18        10.6479    1.2089    2.4077 C.3       1 <0>        -0.0057
     21 N2         11.1201    1.7892    3.6719 N.4       1 <0>        -0.5116
     22 C19        12.5007    1.3554    3.9244 C.3       1 <0>        -0.0095
     23 C20        12.9925    1.9599    5.2411 C.3       1 <0>        -0.1497
     24 C21        14.4304    1.5081    5.5040 C.3       1 <0>        -0.1492
     25 C22        14.9222    2.1125    6.8207 C.3       1 <0>        -0.0097
     26 N3         16.3028    1.6787    7.0732 N.4       1 <0>        -0.5094
     27 C23        16.7750    2.2591    8.3374 C.3       1 <0>        -0.0075
     28 C24        18.2129    1.8073    8.6003 C.3       1 <0>        -0.1521
     29 C25        18.7047    2.4117    9.9170 C.3       1 <0>         0.0629
     30 N4         20.0853    1.9779   10.1695 N.3       1 <0>        -0.8529
     31 H1         -0.9634    1.8756    0.0259 H         1 <0>         0.1268
     32 H2          1.1258    3.1698    0.0084 H         1 <0>         0.1232
     33 H3          3.2883    2.0497   -0.0195 H         1 <0>         0.1164
     34 H4         -0.9241   -0.5595    0.0082 H         1 <0>         0.1309
     35 H5          0.3820   -2.6682   -0.0147 H         1 <0>         0.1309
     36 H6          2.5450   -3.7886   -0.0417 H         1 <0>         0.1264
     37 H7          4.6338   -2.4947   -0.0548 H         1 <0>         0.1185
     38 H8          5.7467   -0.4491   -0.4909 H         1 <0>         0.1047
     39 H9          4.8331    1.0722   -0.6299 H         1 <0>         0.1065
     40 H10         6.9734    1.2073   -0.4362 H         1 <0>         0.1004
     41 H11         7.3242    2.7301    0.4212 H         1 <0>         0.0777
     42 H12         8.7858    0.0697    0.7546 H         1 <0>         0.0823
     43 H13         9.4312    1.5498    0.0041 H         1 <0>         0.0912
     44 H14         9.1617    2.7494    2.1678 H         1 <0>         0.0998
     45 H15         8.3186   -0.0024    3.1857 H         1 <0>         0.0852
     46 H16         8.6239    1.4251    4.2051 H         1 <0>         0.0667
     47 H17         6.8060    2.6558    3.1010 H         1 <0>         0.0724
     48 H18         6.1767    1.0931    3.6833 H         1 <0>         0.1034
     49 H19        10.6810    0.1213    2.4725 H         1 <0>         0.1351
     50 H20        11.2889    1.5440    1.5923 H         1 <0>         0.1375
     51 H21        11.0895    2.7960    3.6120 H         1 <0>         0.4304
     52 H22        12.5338    0.2679    3.9891 H         1 <0>         0.1361
     53 H23        13.1417    1.6906    3.1090 H         1 <0>         0.1368
     54 H24        12.9594    3.0474    5.1764 H         1 <0>         0.1000
     55 H25        12.3515    1.6248    6.0565 H         1 <0>         0.0997
     56 H26        14.4635    0.4205    5.5687 H         1 <0>         0.1002
     57 H27        15.0714    1.8432    4.6886 H         1 <0>         0.0999
     58 H28        14.8892    3.2001    6.7560 H         1 <0>         0.1359
     59 H29        14.2812    1.7774    7.6362 H         1 <0>         0.1364
     60 H30        16.3334    0.6720    7.1331 H         1 <0>         0.4316
     61 H31        16.7420    3.3466    8.2727 H         1 <0>         0.1336
     62 H32        16.1340    1.9240    9.1528 H         1 <0>         0.1359
     63 H33        18.2460    0.7197    8.6650 H         1 <0>         0.0979
     64 H34        18.8539    2.1424    7.7849 H         1 <0>         0.0869
     65 H35        18.6717    3.4993    9.8523 H         1 <0>         0.0384
     66 H36        18.0638    2.0766   10.7325 H         1 <0>         0.0834
     67 H37        20.6875    2.2203    9.3970 H         1 <0>         0.3468
     68 H38        20.4333    2.3642   11.0342 H         1 <0>         0.3609
     69 H39        10.5267    1.4790    4.4268 H         1 <0>         0.4287
     70 H40        16.8962    1.9890    6.3184 H         1 <0>         0.4305
@<TRIPOS>BOND
     1    1    6 ar
     2    1    2 ar
     3    1   31 1
     4    2    3 ar
     5    2   32 1
     6    3    4 ar
     7    3   33 1
     8    4   10 ar
     9    4    5 ar
    10    5    6 ar
    11    5    7 ar
    12    6   34 1
    13    7    8 ar
    14    7   35 1
    15    8    9 ar
    16    8   36 1
    17    9   10 ar
    18    9   37 1
    19   10   11 1
    20   11   12 1
    21   11   38 1
    22   11   39 1
    23   12   13 2
    24   12   14 am
    25   14   19 1
    26   14   15 1
    27   15   16 1
    28   15   40 1
    29   15   41 1
    30   16   17 1
    31   16   42 1
    32   16   43 1
    33   17   18 1
    34   17   20 1
    35   17   44 1
    36   18   19 1
    37   18   45 1
    38   18   46 1
    39   19   47 1
    40   19   48 1
    41   20   21 1
    42   20   49 1
    43   20   50 1
    44   21   22 1
    45   21   51 1
    46   21   69 1
    47   22   23 1
    48   22   52 1
    49   22   53 1
    50   23   24 1
    51   23   54 1
    52   23   55 1
    53   24   25 1
    54   24   56 1
    55   24   57 1
    56   25   26 1
    57   25   58 1
    58   25   59 1
    59   26   27 1
    60   26   60 1
    61   26   70 1
    62   27   28 1
    63   27   61 1
    64   27   62 1
    65   28   29 1
    66   28   63 1
    67   28   64 1
    68   29   30 1
    69   29   65 1
    70   29   66 1
    71   30   67 1
    72   30   68 1
@<TRIPOS>MOLECULE
CHEMBL329066
   36    40     0     0     0
SMALL
USER_CHARGES

@<TRIPOS>ATOM
      1 C1         -0.0166    1.3749    0.0096 C.ar      1 <0>        -0.0943
      2 C2          1.1686    2.0891    0.0021 C.ar      1 <0>        -0.0856
      3 C3          2.3820    1.4230   -0.0144 C.ar      1 <0>        -0.0883
      4 C4          2.4120    0.0463   -0.0225 C.ar      1 <0>        -0.0901
      5 C5          1.2223   -0.6837   -0.0131 C.ar      1 <0>        -0.0616
      6 C6          0.0021   -0.0041    0.0020 C.ar      1 <0>        -0.0717
      7 C7          1.5360   -2.1331   -0.0224 C.2       1 <0>         0.2007
      8 C8          2.8677   -2.3191   -0.0361 C.2       1 <0>        -0.0387
      9 N1          3.4133   -3.5890   -0.0435 N.pl3     1 <0>        -0.3462
     10 C9          4.6938   -4.0437   -0.0539 C.2       1 <0>        -0.0665
     11 C10         4.6353   -5.3991   -0.0562 C.2       1 <0>         0.0207
     12 N2          3.3554   -5.7663   -0.0472 N.2       1 <0>        -0.4004
     13 C11         2.5977   -4.6891   -0.0397 C.2       1 <0>         0.1539
     14 C12         1.1423   -4.4845   -0.0277 C.2       1 <0>         0.5968
     15 N3          0.6665   -3.2238   -0.0191 N.am      1 <0>        -0.6282
     16 O1          0.3817   -5.4353   -0.0259 O.2       1 <0>        -0.4574
     17 C13         3.5222   -0.9630   -0.0416 C.3       1 <0>         0.0446
     18 C14         4.4450   -0.7960    1.1780 C.3       1 <0>        -0.1309
     19 C15         5.8484   -1.0928    0.5880 C.3       1 <0>        -0.0170
     20 N4          5.7811   -0.4977   -0.7720 N.4       1 <0>        -0.5157
     21 C16         4.4178   -0.7870   -1.2730 C.3       1 <0>         0.0043
     22 H1         -0.9604    1.8997    0.0259 H         1 <0>         0.1447
     23 H2          1.1469    3.1689    0.0088 H         1 <0>         0.1443
     24 H3          3.3053    1.9832   -0.0212 H         1 <0>         0.1338
     25 H4         -0.9253   -0.5576    0.0078 H         1 <0>         0.1376
     26 H5          5.5893   -3.4399   -0.0596 H         1 <0>         0.1812
     27 H6          5.4836   -6.0674   -0.0643 H         1 <0>         0.1961
     28 H7          4.3955    0.2223    1.5634 H         1 <0>         0.1189
     29 H8          4.1923   -1.5172    1.9552 H         1 <0>         0.1246
     30 H9          6.6247   -0.6094    1.1811 H         1 <0>         0.1535
     31 H10         6.0212   -2.1674    0.5293 H         1 <0>         0.1372
     32 H11         5.9295    0.4991   -0.7233 H         1 <0>         0.4366
     33 H12         4.4242   -1.7032   -1.8633 H         1 <0>         0.1407
     34 H13         4.0590    0.0450   -1.8790 H         1 <0>         0.1521
     35 H14         6.4703   -0.9244   -1.3729 H         1 <0>         0.4388
     36 H15        -0.2917   -3.0730   -0.0102 H         1 <0>         0.4317
@<TRIPOS>BOND
     1    1    6 ar
     2    1    2 ar
     3    1   22 1
     4    2    3 ar
     5    2   23 1
     6    3    4 ar
     7    3   24 1
     8    4   17 1
     9    4    5 ar
    10    5    6 ar
    11    5    7 1
    12    6   25 1
    13    7   15 1
    14    7    8 2
    15    8    9 1
    16    8   17 1
    17    9   13 1
    18    9   10 1
    19   10   11 2
    20   10   26 1
    21   11   12 1
    22   11   27 1
    23   12   13 2
    24   13   14 1
    25   14   15 am
    26   14   16 2
    27   15   36 1
    28   17   21 1
    29   17   18 1
    30   18   19 1
    31   18   28 1
    32   18   29 1
    33   19   20 1
    34   19   30 1
    35   19   31 1
    36   20   21 1
    37   20   32 1
    38   20   35 1
    39   21   33 1
    40   21   34 1
@<TRIPOS>MOLECULE
CHEMBL329066
   36    40     0     0     0
SMALL
USER_CHARGES

@<TRIPOS>ATOM
      1 C1         -0.0166    1.3749    0.0096 C.ar      1 <0>        -0.0944
      2 C2          1.1684    2.0893    0.0021 C.ar      1 <0>        -0.0858
      3 C3          2.3818    1.4233   -0.0132 C.ar      1 <0>        -0.0881
      4 C4          2.4119    0.0467   -0.0208 C.ar      1 <0>        -0.0896
      5 C5          1.2224   -0.6837   -0.0134 C.ar      1 <0>        -0.0615
      6 C6          0.0021   -0.0041    0.0020 C.ar      1 <0>        -0.0717
      7 C7          1.5364   -2.1330   -0.0252 C.2       1 <0>         0.2003
      8 C8          2.8682   -2.3186   -0.0403 C.2       1 <0>        -0.0384
      9 N1          3.4144   -3.5882   -0.0547 N.pl3     1 <0>        -0.3476
     10 C9          4.6951   -4.0420   -0.0737 C.2       1 <0>        -0.0586
     11 C10         4.6374   -5.3975   -0.0807 C.2       1 <0>         0.0196
     12 N2          3.3575   -5.7655   -0.0668 N.2       1 <0>        -0.4004
     13 C11         2.5994   -4.6886   -0.0514 C.2       1 <0>         0.1531
     14 C12         1.1440   -4.4846   -0.0332 C.2       1 <0>         0.5969
     15 N3          0.6675   -3.2242   -0.0225 N.am      1 <0>        -0.6284
     16 O1          0.3838   -5.4357   -0.0289 O.2       1 <0>        -0.4577
     17 C13         3.5224   -0.9623   -0.0361 C.3       1 <0>         0.0449
     18 C14         4.4176   -0.7829   -1.2744 C.3       1 <0>        -0.1335
     19 C15         5.6281    0.0056   -0.7099 C.3       1 <0>        -0.0039
     20 N4          5.8098   -0.5713    0.6474 N.4       1 <0>        -0.5181
     21 C16         4.4452   -0.7979    1.1765 C.3       1 <0>         0.0043
     22 H1         -0.9605    1.8996    0.0260 H         1 <0>         0.1446
     23 H2          1.1466    3.1691    0.0079 H         1 <0>         0.1441
     24 H3          3.3051    1.9835   -0.0196 H         1 <0>         0.1327
     25 H4         -0.9253   -0.5576    0.0076 H         1 <0>         0.1376
     26 H5          5.5901   -3.4377   -0.0820 H         1 <0>         0.1774
     27 H6          5.4860   -6.0653   -0.0950 H         1 <0>         0.1959
     28 H7          4.7346   -1.7497   -1.6653 H         1 <0>         0.1070
     29 H8          3.9037   -0.2043   -2.0420 H         1 <0>         0.1313
     30 H9          6.5150   -0.1625   -1.3209 H         1 <0>         0.1491
     31 H10         5.3988    1.0694   -0.6480 H         1 <0>         0.1435
     32 H11         6.3102   -1.4456    0.5897 H         1 <0>         0.4305
     33 H12         4.1292    0.0587    1.7720 H         1 <0>         0.1517
     34 H13         4.4265   -1.7023    1.7846 H         1 <0>         0.1413
     35 H14         6.3083    0.0780    1.2374 H         1 <0>         0.4404
     36 H15        -0.2908   -3.0740   -0.0113 H         1 <0>         0.4315
@<TRIPOS>BOND
     1    1    6 ar
     2    1    2 ar
     3    1   22 1
     4    2    3 ar
     5    2   23 1
     6    3    4 ar
     7    3   24 1
     8    4   17 1
     9    4    5 ar
    10    5    6 ar
    11    5    7 1
    12    6   25 1
    13    7   15 1
    14    7    8 2
    15    8    9 1
    16    8   17 1
    17    9   13 1
    18    9   10 1
    19   10   11 2
    20   10   26 1
    21   11   12 1
    22   11   27 1
    23   12   13 2
    24   13   14 1
    25   14   15 am
    26   14   16 2
    27   15   36 1
    28   17   21 1
    29   17   18 1
    30   18   19 1
    31   18   28 1
    32   18   29 1
    33   19   20 1
    34   19   30 1
    35   19   31 1
    36   20   21 1
    37   20   32 1
    38   20   35 1
    39   21   33 1
    40   21   34 1
@<TRIPOS>MOLECULE
CHEMBL410513
   29    31     0     0     0
SMALL
USER_CHARGES

@<TRIPOS>ATOM
      1 C1          0.6431    0.0656   -0.9933 C.ar      1 <0>        -0.1752
      2 C2          1.8871    0.6679   -1.0732 C.ar      1 <0>        -0.0467
      3 C3          2.3443    1.3934    0.0303 C.ar      1 <0>        -0.1311
      4 C4          1.5347    1.4816    1.1613 C.ar      1 <0>         0.1673
      5 N1          0.3579    0.8909    1.1909 N.ar      1 <0>        -0.4787
      6 C5         -0.1003    0.1999    0.1649 C.ar      1 <0>         0.1189
      7 C6          3.6701    2.0584   -0.0015 C.ar      1 <0>         0.0441
      8 C7          3.9511    3.0035   -0.9830 C.ar      1 <0>        -0.1092
      9 C8          5.1919    3.6248   -1.0116 C.ar      1 <0>         0.1783
     10 C9          6.1554    3.2979   -0.0535 C.ar      1 <0>         0.1226
     11 C10         5.8676    2.3513    0.9252 C.ar      1 <0>        -0.0497
     12 C11         4.6336    1.7402    0.9565 C.ar      1 <0>        -0.0325
     13 N2          4.3313    0.7393    2.0044 N.pl3     1 <0>         0.0341
     14 O1          5.1159    0.5508    2.9046 O.2       1 <0>        -0.1491
     15 O2          3.2997    0.1104    1.9599 O.3       1 <0>        -0.1407
     16 N3          7.4043    3.9111   -0.0692 N.am      1 <0>        -0.6316
     17 C12         7.6956    4.8298   -1.0119 C.2       1 <0>         0.5116
     18 C13         6.6674    5.1798   -2.0339 C.2       1 <0>         0.5118
     19 N4          5.4655    4.5697   -1.9972 N.am      1 <0>        -0.6336
     20 O3          6.9105    6.0053   -2.8911 O.2       1 <0>        -0.4449
     21 O4          8.7846    5.3674   -1.0285 O.2       1 <0>        -0.4486
     22 H1          0.2555   -0.4993   -1.8282 H         1 <0>         0.1413
     23 H2          2.4891    0.5790   -1.9654 H         1 <0>         0.1369
     24 H3          1.8756    2.0390    2.0212 H         1 <0>         0.1455
     25 H4         -1.0712   -0.2687    0.2306 H         1 <0>         0.1607
     26 H5          3.2045    3.2533   -1.7224 H         1 <0>         0.1654
     27 H6          6.6126    2.0983    1.6650 H         1 <0>         0.1727
     28 H7          4.7904    4.7894   -2.6582 H         1 <0>         0.4302
     29 H8          8.0666    3.6773    0.5998 H         1 <0>         0.4301
@<TRIPOS>BOND
     1    1    6 ar
     2    1    2 ar
     3    1   22 1
     4    2    3 ar
     5    2   23 1
     6    3    4 ar
     7    3    7 1
     8    4    5 ar
     9    4   24 1
    10    5    6 ar
    11    6   25 1
    12    7   12 ar
    13    7    8 ar
    14    8    9 ar
    15    8   26 1
    16    9   19 1
    17    9   10 ar
    18   10   11 ar
    19   10   16 1
    20   11   12 ar
    21   11   27 1
    22   12   13 1
    23   13   14 2
    24   13   15 1
    25   16   17 am
    26   16   29 1
    27   17   18 1
    28   17   21 2
    29   18   19 am
    30   18   20 2
    31   19   28 1
@<TRIPOS>MOLECULE
CHEMBL23648
   81    84     0     0     0
SMALL
USER_CHARGES

@<TRIPOS>ATOM
      1 C1         -0.0178    1.4648    0.0101 C.3       1 <0>        -0.0512
      2 N1          0.0021   -0.0041    0.0020 N.4       1 <0>        -0.3863
      3 C2         -1.3756   -0.5106    0.0035 C.3       1 <0>        -0.0096
      4 C3         -1.3615   -2.0381   -0.0867 C.3       1 <0>        -0.1401
      5 C4         -0.6051   -2.6081    1.1167 C.3       1 <0>        -0.1305
      6 C5          0.8066   -2.0155    1.1472 C.3       1 <0>        -0.1607
      7 C6          0.7122   -0.4888    1.1916 C.3       1 <0>        -0.0070
      8 C7         -0.5183   -4.1305    0.9921 C.3       1 <0>        -0.0054
      9 N2          0.1007   -4.6864    2.2028 N.4       1 <0>        -0.5123
     10 C8          0.1840   -6.1481    2.0832 C.3       1 <0>        -0.0109
     11 C9          0.8288   -6.7271    3.3441 C.3       1 <0>        -0.1492
     12 C10         0.9156   -8.2496    3.2196 C.3       1 <0>        -0.1508
     13 C11         1.5603   -8.8285    4.4805 C.3       1 <0>        -0.0094
     14 N3          1.6437  -10.2903    4.3609 N.4       1 <0>        -0.5118
     15 C12         2.2627  -10.8461    5.5716 C.3       1 <0>        -0.0057
     16 C13         2.3495  -12.3686    5.4470 C.3       1 <0>        -0.1151
     17 C14         0.9378  -12.9580    5.4050 C.3       1 <0>        -0.1431
     18 C15         1.0283  -14.4789    5.2455 C.3       1 <0>         0.1105
     19 N4          1.8754  -15.0174    6.3185 N.am      1 <0>        -0.6253
     20 C16         3.2207  -14.4570    6.5049 C.3       1 <0>         0.1033
     21 C17         3.1056  -12.9363    6.6504 C.3       1 <0>        -0.1287
     22 C18         1.4267  -16.0062    7.1167 C.2       1 <0>         0.5191
     23 O1          0.3140  -16.4601    6.9529 O.2       1 <0>        -0.5074
     24 C19         2.3075  -16.5480    8.2129 C.3       1 <0>        -0.0986
     25 C20         1.5755  -17.6374    8.9534 C.ar      1 <0>        -0.0719
     26 C21         0.8854  -17.3474   10.0904 C.ar      1 <0>        -0.0968
     27 C22         0.2027  -18.3413   10.7884 C.ar      1 <0>        -0.1204
     28 C23         0.2062  -19.6314   10.3539 C.ar      1 <0>        -0.0926
     29 C24         0.9074  -19.9690    9.1842 C.ar      1 <0>        -0.0525
     30 C25         1.5969  -18.9567    8.4706 C.ar      1 <0>        -0.0324
     31 C26         2.2934  -19.2935    7.2973 C.ar      1 <0>        -0.1170
     32 C27         2.2919  -20.5822    6.8598 C.ar      1 <0>        -0.1058
     33 C28         1.6086  -21.5764    7.5579 C.ar      1 <0>        -0.1174
     34 C29         0.9344  -21.2900    8.7050 C.ar      1 <0>        -0.0981
     35 H1          1.0047    1.8421    0.0024 H         1 <0>         0.1305
     36 H2         -0.5450    1.8259   -0.8730 H         1 <0>         0.1322
     37 H3         -0.5280    1.8163    0.9069 H         1 <0>         0.1263
     38 H4         -1.8732   -0.2060    0.9241 H         1 <0>         0.1352
     39 H5         -1.9135   -0.1015   -0.8518 H         1 <0>         0.1452
     40 H6         -2.3852   -2.4123   -0.0837 H         1 <0>         0.1257
     41 H7         -0.8642   -2.3438   -1.0072 H         1 <0>         0.1018
     42 H8         -1.1305   -2.3457    2.0350 H         1 <0>         0.1153
     43 H9          1.3327   -2.3735    2.0321 H         1 <0>         0.1056
     44 H10         1.3489   -2.3207    0.2523 H         1 <0>         0.1051
     45 H11         1.7157   -0.0637    1.2136 H         1 <0>         0.1424
     46 H12         0.1701   -0.1847    2.0870 H         1 <0>         0.1350
     47 H13        -1.5203   -4.5431    0.8742 H         1 <0>         0.1466
     48 H14         0.0861   -4.3901    0.1230 H         1 <0>         0.1415
     49 H15         1.0282   -4.3045    2.3120 H         1 <0>         0.4273
     50 H16        -0.8179   -6.5607    1.9652 H         1 <0>         0.1407
     51 H17         0.7885   -6.4077    1.2141 H         1 <0>         0.1391
     52 H18         1.8308   -6.3145    3.4621 H         1 <0>         0.1001
     53 H19         0.2243   -6.4675    4.2132 H         1 <0>         0.1014
     54 H20        -0.0864   -8.6621    3.1016 H         1 <0>         0.1011
     55 H21         1.5200   -8.5091    2.3504 H         1 <0>         0.1010
     56 H22         2.5623   -8.4159    4.5985 H         1 <0>         0.1366
     57 H23         0.9559   -8.5689    5.3496 H         1 <0>         0.1362
     58 H24         0.7161  -10.6722    4.2517 H         1 <0>         0.4294
     59 H25         3.2647  -10.4335    5.6895 H         1 <0>         0.1377
     60 H26         1.6583  -10.5866    6.4407 H         1 <0>         0.1356
     61 H27         2.8786  -12.6283    4.5301 H         1 <0>         0.1000
     62 H28         0.4164  -12.7198    6.3321 H         1 <0>         0.0850
     63 H29         0.3921  -12.5355    4.5613 H         1 <0>         0.0657
     64 H30         0.0310  -14.9135    5.3143 H         1 <0>         0.1037
     65 H31         1.4679  -14.7192    4.2775 H         1 <0>         0.0719
     66 H32         3.6700  -14.8771    7.4047 H         1 <0>         0.1014
     67 H33         3.8391  -14.6955    5.6396 H         1 <0>         0.0780
     68 H34         4.1029  -12.4984    6.6930 H         1 <0>         0.0912
     69 H35         2.5638  -12.6984    7.5657 H         1 <0>         0.0825
     70 H36         3.2205  -16.9545    7.7779 H         1 <0>         0.1067
     71 H37         2.5612  -15.7452    8.9053 H         1 <0>         0.1044
     72 H38         0.8672  -16.3317   10.4571 H         1 <0>         0.1179
     73 H39        -0.3371  -18.0845   11.6879 H         1 <0>         0.1265
     74 H40        -0.3270  -20.3914   10.9057 H         1 <0>         0.1314
     75 H41         2.8268  -18.5336    6.7455 H         1 <0>         0.1159
     76 H42         2.8280  -20.8383    5.9579 H         1 <0>         0.1234
     77 H43         1.6231  -22.5912    7.1888 H         1 <0>         0.1274
     78 H44         0.4101  -22.0708    9.2358 H         1 <0>         0.1316
     79 H45         2.2032  -10.5305    3.5564 H         1 <0>         0.4308
     80 H46         0.4767   -0.3284   -0.8272 H         1 <0>         0.4277
     81 H47        -0.4588   -4.4461    3.0073 H         1 <0>         0.4335
@<TRIPOS>BOND
     1    1    2 1
     2    1   35 1
     3    1   36 1
     4    1   37 1
     5    2    7 1
     6    2    3 1
     7    2   80 1
     8    3    4 1
     9    3   38 1
    10    3   39 1
    11    4    5 1
    12    4   40 1
    13    4   41 1
    14    5    6 1
    15    5    8 1
    16    5   42 1
    17    6    7 1
    18    6   43 1
    19    6   44 1
    20    7   45 1
    21    7   46 1
    22    8    9 1
    23    8   47 1
    24    8   48 1
    25    9   10 1
    26    9   49 1
    27    9   81 1
    28   10   11 1
    29   10   50 1
    30   10   51 1
    31   11   12 1
    32   11   52 1
    33   11   53 1
    34   12   13 1
    35   12   54 1
    36   12   55 1
    37   13   14 1
    38   13   56 1
    39   13   57 1
    40   14   15 1
    41   14   58 1
    42   14   79 1
    43   15   16 1
    44   15   59 1
    45   15   60 1
    46   16   21 1
    47   16   17 1
    48   16   61 1
    49   17   18 1
    50   17   62 1
    51   17   63 1
    52   18   19 1
    53   18   64 1
    54   18   65 1
    55   19   20 1
    56   19   22 am
    57   20   21 1
    58   20   66 1
    59   20   67 1
    60   21   68 1
    61   21   69 1
    62   22   23 2
    63   22   24 1
    64   24   25 1
    65   24   70 1
    66   24   71 1
    67   25   30 ar
    68   25   26 ar
    69   26   27 ar
    70   26   72 1
    71   27   28 ar
    72   27   73 1
    73   28   29 ar
    74   28   74 1
    75   29   34 ar
    76   29   30 ar
    77   30   31 ar
    78   31   32 ar
    79   31   75 1
    80   32   33 ar
    81   32   76 1
    82   33   34 ar
    83   33   77 1
    84   34   78 1
@<TRIPOS>MOLECULE
CHEMBL142872
   27    29     0     0     0
SMALL
USER_CHARGES

@<TRIPOS>ATOM
      1 C1         -0.0244    1.3593    0.1146 C.ar      1 <0>        -0.1144
      2 C2          1.1610    2.0477    0.3523 C.ar      1 <0>         0.0796
      3 C3          2.3857    1.3892    0.2331 C.ar      1 <0>        -0.0144
      4 C4          2.4235    0.0583   -0.1200 C.ar      1 <0>        -0.0597
      5 C5          1.2417   -0.6362   -0.3597 C.ar      1 <0>         0.1208
      6 C6          0.0126    0.0180   -0.2409 C.ar      1 <0>         0.1687
      7 N1         -1.1782   -0.6638   -0.4771 N.am      1 <0>        -0.6333
      8 C7         -1.1543   -1.9670   -0.8226 C.2       1 <0>         0.5122
      9 C8          0.1573   -2.6652   -0.9484 C.2       1 <0>         0.5110
     10 N2          1.2954   -1.9806   -0.7162 N.am      1 <0>        -0.6308
     11 O1          0.2000   -3.8390   -1.2582 O.2       1 <0>        -0.4536
     12 O2         -2.1905   -2.5662   -1.0289 O.2       1 <0>        -0.4508
     13 N3          3.6465    2.1225    0.4862 N.pl3     1 <0>         0.0309
     14 O3          4.5612    2.0416   -0.3002 O.2       1 <0>        -0.1863
     15 O4          3.7616    2.8022    1.4794 O.3       1 <0>        -0.0686
     16 C9          1.1232    3.4813    0.7318 C.2       1 <0>        -0.0016
     17 C10         0.0091    4.2075    1.0109 C.2       1 <0>        -0.0036
     18 N4          0.4305    5.4734    1.3100 N.pl3     1 <0>        -0.5647
     19 H1         -0.1340    6.2240    1.5524 H         1 <0>         0.4279
     20 C11         1.7775    5.4864    1.2066 C.2       1 <0>         0.2091
     21 N5          2.1888    4.2967    0.8676 N.2       1 <0>        -0.4606
     22 H2         -0.9728    1.8669    0.2109 H         1 <0>         0.1607
     23 H3          3.3733   -0.4476   -0.2116 H         1 <0>         0.1625
     24 H4         -1.0111    3.8536    0.9985 H         1 <0>         0.1851
     25 H5          2.4116    6.3432    1.3808 H         1 <0>         0.2175
     26 H6         -2.0264   -0.2007   -0.3927 H         1 <0>         0.4282
     27 H7          2.1532   -2.4262   -0.7962 H         1 <0>         0.4284
@<TRIPOS>BOND
     1    1    6 ar
     2    1    2 ar
     3    1   22 1
     4    2    3 ar
     5    2   16 1
     6    3    4 ar
     7    3   13 1
     8    4    5 ar
     9    4   23 1
    10    5   10 1
    11    5    6 ar
    12    6    7 1
    13    7    8 am
    14    7   26 1
    15    8    9 1
    16    8   12 2
    17    9   10 am
    18    9   11 2
    19   10   27 1
    20   13   14 2
    21   13   15 1
    22   16   21 1
    23   16   17 2
    24   17   18 1
    25   17   24 1
    26   18   19 1
    27   18   20 1
    28   20   21 2
    29   20   25 1
@<TRIPOS>MOLECULE
CHEMBL142872
   27    29     0     0     0
SMALL
USER_CHARGES

@<TRIPOS>ATOM
      1 C1         -0.0450    1.3041   -0.1884 C.ar      1 <0>        -0.1049
      2 C2          1.0948    2.0908   -0.0365 C.ar      1 <0>         0.0766
      3 C3          2.3409    1.4852    0.1468 C.ar      1 <0>        -0.0431
      4 C4          2.4439    0.1126    0.1770 C.ar      1 <0>        -0.0476
      5 C5          1.3089   -0.6789    0.0253 C.ar      1 <0>         0.1209
      6 C6          0.0595   -0.0792   -0.1574 C.ar      1 <0>         0.1825
      7 N1         -1.0844   -0.8585   -0.3100 N.am      1 <0>        -0.6330
      8 C7         -0.9950   -2.2036   -0.2816 C.2       1 <0>         0.5120
      9 C8          0.3378   -2.8428   -0.0857 C.2       1 <0>         0.5114
     10 N2          1.4295   -2.0647    0.0577 N.am      1 <0>        -0.6316
     11 O1          0.4392   -4.0530   -0.0567 O.2       1 <0>        -0.4484
     12 O2         -1.9900   -2.8876   -0.4139 O.2       1 <0>        -0.4437
     13 N3          3.5522    2.3210    0.3082 N.pl3     1 <0>         0.0358
     14 O3          4.6444    1.8033    0.3374 O.2       1 <0>        -0.1451
     15 O4          3.4493    3.5212    0.4109 O.3       1 <0>        -0.1559
     16 C9          0.9862    3.5651   -0.0696 C.2       1 <0>        -0.0254
     17 C10         0.0870    4.3309    0.6065 C.2       1 <0>         0.0325
     18 N4          0.3271    5.6117    0.3025 N.2       1 <0>        -0.4953
     19 H1          2.5171    4.1940   -1.3671 H         1 <0>         0.4204
     20 C11         1.3311    5.6825   -0.5294 C.2       1 <0>         0.2238
     21 N5          1.7785    4.4336   -0.7858 N.pl3     1 <0>        -0.5350
     22 H2         -1.0094    1.7704   -0.3257 H         1 <0>         0.1696
     23 H3          3.4087   -0.3516    0.3184 H         1 <0>         0.1721
     24 H4         -0.6840    3.9690    1.2705 H         1 <0>         0.1754
     25 H5          1.7406    6.5925   -0.9424 H         1 <0>         0.2151
     26 H6         -1.9469   -0.4330   -0.4366 H         1 <0>         0.4311
     27 H7          2.3006   -2.4719    0.1850 H         1 <0>         0.4298
@<TRIPOS>BOND
     1    1    6 ar
     2    1    2 ar
     3    1   22 1
     4    2    3 ar
     5    2   16 1
     6    3    4 ar
     7    3   13 1
     8    4    5 ar
     9    4   23 1
    10    5   10 1
    11    5    6 ar
    12    6    7 1
    13    7    8 am
    14    7   26 1
    15    8    9 1
    16    8   12 2
    17    9   10 am
    18    9   11 2
    19   10   27 1
    20   13   14 2
    21   13   15 1
    22   16   17 2
    23   16   21 1
    24   17   18 1
    25   17   24 1
    26   18   20 2
    27   19   21 1
    28   20   25 1
    29   20   21 1
@<TRIPOS>MOLECULE
CHEMBL543708
   48    51     0     0     0
SMALL
USER_CHARGES

@<TRIPOS>ATOM
      1 C1         -0.0167    1.3781    0.0096 C.ar      1 <0>        -0.1245
      2 C2          1.1709    2.0855    0.0021 C.ar      1 <0>        -0.1188
      3 C3          2.3773    1.4107   -0.0130 C.ar      1 <0>        -0.1186
      4 C4          2.3960    0.0285   -0.0201 C.ar      1 <0>        -0.0762
      5 C5          1.2084   -0.6789   -0.0117 C.ar      1 <0>        -0.1127
      6 C6          0.0021   -0.0041    0.0020 C.ar      1 <0>        -0.1182
      7 C7          3.7112   -0.7071   -0.0376 C.3       1 <0>        -0.0486
      8 C8          3.7890   -1.5865   -1.2887 C.3       1 <0>        -0.1073
      9 C9          5.0994   -2.3768   -1.2700 C.3       1 <0>         0.0622
     10 N1          5.1537   -3.2086   -0.0611 N.3       1 <0>        -0.5230
     11 C10         5.1281   -2.3830    1.1531 C.3       1 <0>         0.0486
     12 C11         3.8186   -1.5929    1.2068 C.3       1 <0>        -0.1063
     13 C12         6.3328   -4.0846   -0.0773 C.3       1 <0>         0.0767
     14 C13         6.2289   -5.0875    1.0426 C.ar      1 <0>         0.0029
     15 C14         6.9222   -4.8800    2.2178 C.ar      1 <0>        -0.1203
     16 C15         6.8283   -5.8030    3.2533 C.ar      1 <0>         0.1744
     17 C16         6.0311   -6.9387    3.0981 C.ar      1 <0>         0.1199
     18 C17         5.3378   -7.1371    1.9095 C.ar      1 <0>        -0.0551
     19 C18         5.4339   -6.2108    0.8909 C.ar      1 <0>        -0.0194
     20 N2          4.6895   -6.4223   -0.3709 N.pl3     1 <0>         0.0395
     21 O1          3.9946   -7.4024   -0.5058 O.2       1 <0>        -0.1739
     22 O2          4.7764   -5.6150   -1.2666 O.3       1 <0>        -0.1182
     23 N3          5.9245   -7.8746    4.1230 N.am      1 <0>        -0.6320
     24 C19         6.5934   -7.6902    5.2793 C.2       1 <0>         0.5113
     25 C20         7.4447   -6.4768    5.4453 C.2       1 <0>         0.5114
     26 N4          7.5304   -5.5869    4.4357 N.am      1 <0>        -0.6339
     27 O3          8.0548   -6.2922    6.4792 O.2       1 <0>        -0.4474
     28 O4          6.5033   -8.5038    6.1766 O.2       1 <0>        -0.4511
     29 H1         -0.9591    1.9053    0.0259 H         1 <0>         0.1203
     30 H2          1.1563    3.1654    0.0076 H         1 <0>         0.1207
     31 H3          3.3051    1.9634   -0.0196 H         1 <0>         0.1191
     32 H4          1.2231   -1.7588   -0.0176 H         1 <0>         0.1216
     33 H5         -0.9258   -0.5567    0.0082 H         1 <0>         0.1211
     34 H6          4.5306    0.0117   -0.0448 H         1 <0>         0.0745
     35 H7          2.9469   -2.2784   -1.3001 H         1 <0>         0.0763
     36 H8          3.7561   -0.9574   -2.1782 H         1 <0>         0.0709
     37 H9          5.1514   -3.0146   -2.1524 H         1 <0>         0.0885
     38 H10         5.9412   -1.6843   -1.2725 H         1 <0>         0.0347
     39 H11         5.2009   -3.0254    2.0306 H         1 <0>         0.0718
     40 H12         5.9698   -1.6905    1.1392 H         1 <0>         0.0372
     41 H13         3.8067   -0.9685    2.1001 H         1 <0>         0.0678
     42 H14         2.9769   -2.2849    1.2346 H         1 <0>         0.0728
     43 H15         6.3826   -4.6092   -1.0314 H         1 <0>         0.1203
     44 H16         7.2331   -3.4845    0.0548 H         1 <0>         0.0532
     45 H17         7.5381   -4.0004    2.3330 H         1 <0>         0.1601
     46 H18         4.7202   -8.0143    1.7848 H         1 <0>         0.1694
     47 H19         5.3680   -8.6604    4.0054 H         1 <0>         0.4293
     48 H20         8.0819   -4.7949    4.5337 H         1 <0>         0.4289
@<TRIPOS>BOND
     1    1    6 ar
     2    1    2 ar
     3    1   29 1
     4    2    3 ar
     5    2   30 1
     6    3    4 ar
     7    3   31 1
     8    4    5 ar
     9    4    7 1
    10    5    6 ar
    11    5   32 1
    12    6   33 1
    13    7   12 1
    14    7    8 1
    15    7   34 1
    16    8    9 1
    17    8   35 1
    18    8   36 1
    19    9   10 1
    20    9   37 1
    21    9   38 1
    22   10   11 1
    23   10   13 1
    24   11   12 1
    25   11   39 1
    26   11   40 1
    27   12   41 1
    28   12   42 1
    29   13   14 1
    30   13   43 1
    31   13   44 1
    32   14   19 ar
    33   14   15 ar
    34   15   16 ar
    35   15   45 1
    36   16   26 1
    37   16   17 ar
    38   17   18 ar
    39   17   23 1
    40   18   19 ar
    41   18   46 1
    42   19   20 1
    43   20   21 2
    44   20   22 1
    45   23   24 am
    46   23   47 1
    47   24   25 1
    48   24   28 2
    49   25   26 am
    50   25   27 2
    51   26   48 1
@<TRIPOS>MOLECULE
CHEMBL543708
   49    52     0     0     0
SMALL
USER_CHARGES

@<TRIPOS>ATOM
      1 C1         -0.0167    1.3781    0.0096 C.ar      1 <0>        -0.1094
      2 C2          1.1709    2.0855    0.0021 C.ar      1 <0>        -0.1129
      3 C3          2.3773    1.4107   -0.0130 C.ar      1 <0>        -0.1093
      4 C4          2.3960    0.0285   -0.0201 C.ar      1 <0>        -0.0977
      5 C5          1.2084   -0.6789   -0.0117 C.ar      1 <0>        -0.1165
      6 C6          0.0021   -0.0041    0.0020 C.ar      1 <0>        -0.1142
      7 C7          3.7112   -0.7071   -0.0376 C.3       1 <0>        -0.0532
      8 C8          3.7885   -1.5882   -1.2877 C.3       1 <0>        -0.1401
      9 C9          5.0904   -2.3918   -1.2589 C.3       1 <0>        -0.0039
     10 N1          5.1211   -3.2377   -0.0597 N.4       1 <0>        -0.3774
     11 C10         5.1196   -2.3966    1.1432 C.3       1 <0>        -0.0158
     12 C11         3.8189   -1.5931    1.2068 C.3       1 <0>        -0.1388
     13 C12         6.3355   -4.0641   -0.0761 C.3       1 <0>         0.0277
     14 C13         6.3087   -5.0196    1.0889 C.ar      1 <0>        -0.0801
     15 C14         7.0279   -4.7315    2.2310 C.ar      1 <0>        -0.0967
     16 C15         7.0051   -5.6105    3.3079 C.ar      1 <0>         0.1842
     17 C16         6.2527   -6.7839    3.2278 C.ar      1 <0>         0.1560
     18 C17         5.5326   -7.0635    2.0719 C.ar      1 <0>        -0.0475
     19 C18         5.5581   -6.1803    1.0117 C.ar      1 <0>        -0.0281
     20 N2          4.7853   -6.4785   -0.2151 N.pl3     1 <0>         0.0335
     21 O1          4.1291   -7.4915   -0.2850 O.2       1 <0>        -0.0900
     22 O2          4.8103   -5.7090   -1.1473 O.3       1 <0>        -0.1998
     23 N3          6.2175   -7.6769    4.2951 N.am      1 <0>        -0.6349
     24 C19         6.9128   -7.4136    5.4201 C.2       1 <0>         0.5105
     25 C20         7.7162   -6.1598    5.5059 C.2       1 <0>         0.5107
     26 N4          7.7330   -5.3131    4.4566 N.am      1 <0>        -0.6350
     27 O3          8.3491   -5.9043    6.5106 O.2       1 <0>        -0.4224
     28 O4          6.8849   -8.1895    6.3542 O.2       1 <0>        -0.4241
     29 H1         -0.9591    1.9053    0.0259 H         1 <0>         0.1276
     30 H2          1.1563    3.1654    0.0076 H         1 <0>         0.1279
     31 H3          3.3051    1.9634   -0.0196 H         1 <0>         0.1239
     32 H4          1.2231   -1.7588   -0.0176 H         1 <0>         0.1172
     33 H5         -0.9258   -0.5567    0.0082 H         1 <0>         0.1264
     34 H6          4.5307    0.0115   -0.0454 H         1 <0>         0.0975
     35 H7          2.9394   -2.2714   -1.3046 H         1 <0>         0.0909
     36 H8          3.7685   -0.9595   -2.1779 H         1 <0>         0.1180
     37 H9          5.1488   -3.0201   -2.1477 H         1 <0>         0.1409
     38 H10         5.9388   -1.7078   -1.2423 H         1 <0>         0.1324
     39 H11         5.1996   -3.0283    2.0278 H         1 <0>         0.1244
     40 H12         5.9674   -1.7124    1.1086 H         1 <0>         0.1356
     41 H13         3.8205   -0.9680    2.0997 H         1 <0>         0.1154
     42 H14         2.9704   -2.2764    1.2417 H         1 <0>         0.0879
     43 H15         6.3785   -4.6282   -1.0078 H         1 <0>         0.1676
     44 H16         7.2130   -3.4220    0.0007 H         1 <0>         0.1488
     45 H17         7.6090   -3.8229    2.2881 H         1 <0>         0.1735
     46 H18         4.9495   -7.9701    2.0052 H         1 <0>         0.1822
     47 H19         5.6917   -8.4894    4.2297 H         1 <0>         0.4355
     48 H20         8.2529   -4.4954    4.5023 H         1 <0>         0.4332
     49 H21         4.3092   -3.8367   -0.0510 H         1 <0>         0.4185
@<TRIPOS>BOND
     1    1    6 ar
     2    1    2 ar
     3    1   29 1
     4    2    3 ar
     5    2   30 1
     6    3    4 ar
     7    3   31 1
     8    4    5 ar
     9    4    7 1
    10    5    6 ar
    11    5   32 1
    12    6   33 1
    13    7   12 1
    14    7    8 1
    15    7   34 1
    16    8    9 1
    17    8   35 1
    18    8   36 1
    19    9   10 1
    20    9   37 1
    21    9   38 1
    22   10   11 1
    23   10   13 1
    24   10   49 1
    25   11   12 1
    26   11   39 1
    27   11   40 1
    28   12   41 1
    29   12   42 1
    30   13   14 1
    31   13   43 1
    32   13   44 1
    33   14   19 ar
    34   14   15 ar
    35   15   16 ar
    36   15   45 1
    37   16   26 1
    38   16   17 ar
    39   17   18 ar
    40   17   23 1
    41   18   19 ar
    42   18   46 1
    43   19   20 1
    44   20   21 2
    45   20   22 1
    46   23   24 am
    47   23   47 1
    48   24   25 1
    49   24   28 2
    50   25   26 am
    51   25   27 2
    52   26   48 1
@<TRIPOS>MOLECULE
CHEMBL315547
   42    43     0     0     0
SMALL
USER_CHARGES

@<TRIPOS>ATOM
      1 C1          0.6183    2.0120    0.6163 C.3       1 <0>        -0.1446
      2 C2          0.4496    0.5649    0.1492 C.3       1 <0>         0.0401
      3 N1          0.8926   -0.3475    1.2118 N.3       1 <0>        -0.4874
      4 C3          1.0946   -1.7055    0.6893 C.3       1 <0>         0.0473
      5 C4          2.2015   -1.6908   -0.3332 C.ar      1 <0>        -0.0756
      6 C5          1.8969   -1.6730   -1.6792 C.ar      1 <0>        -0.0538
      7 C6          2.9095   -1.6599   -2.6232 C.ar      1 <0>        -0.1878
      8 C7          4.2310   -1.6646   -2.2254 C.ar      1 <0>        -0.0709
      9 C8          4.5502   -1.6821   -0.8724 C.ar      1 <0>         0.1050
     10 C9          3.5290   -1.6895    0.0798 C.ar      1 <0>         0.1911
     11 N2          3.8283   -1.7018    1.4392 N.am      1 <0>        -0.6178
     12 C10         5.1131   -1.7002    1.8487 C.2       1 <0>         0.5017
     13 C11         6.2040   -1.6857    0.8317 C.2       1 <0>         0.5117
     14 N3          5.8855   -1.6867   -0.4788 N.am      1 <0>        -0.6331
     15 O1          7.3676   -1.6836    1.1801 O.2       1 <0>        -0.4739
     16 O2          5.3793   -1.7101    3.0337 O.2       1 <0>        -0.4361
     17 C12         2.5674   -1.6410   -4.0908 C.3       1 <0>         0.5158
     18 F1          2.4605   -0.3163   -4.5276 F         1 <0>        -0.1768
     19 F2          3.5745   -2.2904   -4.8128 F         1 <0>        -0.1779
     20 F3          1.3495   -2.2988   -4.2942 F         1 <0>        -0.1763
     21 C13        -0.0567   -0.3505    2.3328 C.3       1 <0>        -0.5142
     22 H1         -0.3352    0.6749    2.5759 H         1 <0>         0.0897
     23 C14        -1.3075   -1.1391    1.9397 C.3       1 <0>        -0.1736
     24 P1          0.7212   -1.1296    3.7858 P.3       1 <0>         2.2501
     25 O3          0.9415   -2.6333    3.5077 O.2       1 <0>        -1.0869
     26 O4          2.0815   -0.4531    4.0664 O.3       1 <0>        -1.0740
     27 O5         -0.2390   -0.9557    5.0664 O.3       1 <0>        -0.9048
     28 H2          1.6447    2.1696    0.9475 H         1 <0>         0.0671
     29 H3          0.3948    2.6885   -0.2086 H         1 <0>         0.0524
     30 H4         -0.0645    2.2090    1.4428 H         1 <0>         0.0484
     31 H5         -0.5998    0.3763   -0.0775 H         1 <0>         0.0296
     32 H6          1.0499    0.3995   -0.7454 H         1 <0>         0.0726
     33 H7          1.3647   -2.3731    1.5075 H         1 <0>         0.1392
     34 H8          0.1739   -2.0561    0.2231 H         1 <0>         0.0553
     35 H9          0.8648   -1.6696   -1.9972 H         1 <0>         0.1410
     36 H10         5.0175   -1.6551   -2.9654 H         1 <0>         0.1477
     37 H11        -2.0119   -1.1414    2.7715 H         1 <0>         0.0582
     38 H12        -1.7726   -0.6733    1.0710 H         1 <0>         0.0431
     39 H13        -1.0290   -2.1646    1.6967 H         1 <0>         0.0737
     40 H14         0.1126   -1.3474    5.8777 H         1 <0>         0.4146
     41 H15         3.1117   -1.7113    2.0929 H         1 <0>         0.4506
     42 H16         6.5877   -1.6781   -1.1479 H         1 <0>         0.4194
@<TRIPOS>BOND
     1    1    2 1
     2    1   28 1
     3    1   29 1
     4    1   30 1
     5    2    3 1
     6    2   31 1
     7    2   32 1
     8    3    4 1
     9    3   21 1
    10    4    5 1
    11    4   33 1
    12    4   34 1
    13    5   10 ar
    14    5    6 ar
    15    6    7 ar
    16    6   35 1
    17    7    8 ar
    18    7   17 1
    19    8    9 ar
    20    8   36 1
    21    9   14 1
    22    9   10 ar
    23   10   11 1
    24   11   12 am
    25   11   41 1
    26   12   13 1
    27   12   16 2
    28   13   14 am
    29   13   15 2
    30   14   42 1
    31   17   18 1
    32   17   19 1
    33   17   20 1
    34   21   22 1
    35   21   23 1
    36   21   24 1
    37   23   37 1
    38   23   38 1
    39   23   39 1
    40   24   25 2
    41   24   26 1
    42   24   27 1
    43   27   40 1
@<TRIPOS>MOLECULE
CHEMBL104208
   22    22     0     0     0
SMALL
USER_CHARGES

@<TRIPOS>ATOM
      1 C1         -0.0127    1.0858    0.0080 C.3       1 <0>        -0.0537
      2 C2         -0.7416    1.5850   -1.2129 C.2       1 <0>        -0.0758
      3 C3         -0.2003    1.8639   -2.4217 C.2       1 <0>        -0.1106
      4 N1         -1.2221    2.2789   -3.2056 N.pl3     1 <0>        -0.0252
      5 N2         -2.3035    2.2492   -2.5081 N.2       1 <0>        -0.1267
      6 N3         -2.0518    1.8342   -1.3168 N.2       1 <0>        -0.3146
      7 O1         -1.1194    2.6778   -4.5604 O.3       1 <0>        -0.5828
      8 C4          1.2491    1.7382   -2.8151 C.3       1 <0>        -0.0246
      9 C5          1.9709    3.0569   -2.5306 C.3       1 <0>        -0.0391
     10 C6          3.3881    2.9730   -3.0362 C.2       1 <0>         0.4968
     11 O2          3.6073    2.9524   -4.2354 O.co2     1 <0>        -0.6351
     12 O3          4.3154    2.9258   -2.2460 O.co2     1 <0>        -0.6849
     13 N4          1.9814    3.3070   -1.0831 N.4       1 <0>        -0.6111
     14 H1          0.0021   -0.0041    0.0020 H         1 <0>         0.0728
     15 H2          1.0099    1.4631    0.0003 H         1 <0>         0.0401
     16 H3         -0.5229    1.4373    0.9048 H         1 <0>         0.0736
     17 H4          1.7138    0.9380   -2.2391 H         1 <0>         0.0872
     18 H5          1.3183    1.5081   -3.8783 H         1 <0>         0.1157
     19 H6          1.4523    3.8714   -3.0363 H         1 <0>         0.1325
     20 H7          2.4574    4.1767   -0.8955 H         1 <0>         0.4242
     21 H8          1.0325    3.3632   -0.7446 H         1 <0>         0.4162
     22 H9          2.4614    2.5530   -0.6150 H         1 <0>         0.4249
@<TRIPOS>BOND
     1    1   14 1
     2    1   15 1
     3    1   16 1
     4    1    2 1
     5    2    6 1
     6    2    3 2
     7    3    8 1
     8    3    4 1
     9    4    7 1
    10    4    5 1
    11    5    6 2
    12    8    9 1
    13    8   17 1
    14    8   18 1
    15    9   10 1
    16    9   13 1
    17    9   19 1
    18   10   11 2
    19   10   12 1
    20   13   20 1
    21   13   21 1
    22   13   22 1
@<TRIPOS>MOLECULE
CHEMBL104208
   23    23     0     0     0
SMALL
USER_CHARGES

@<TRIPOS>ATOM
      1 C1         -0.0127    1.0858    0.0080 C.3       1 <0>        -0.1053
      2 C2         -0.7416    1.5850   -1.2129 C.2       1 <0>         0.0958
      3 C3         -0.1971    1.8618   -2.4167 C.2       1 <0>        -0.0760
      4 N1         -1.1595    2.2789   -3.2420 N.pl3     1 <0>         0.0644
      5 N2         -2.2900    2.2819   -2.6250 N.2       1 <0>        -0.0249
      6 N3         -2.0687    1.8359   -1.3132 N.pl3     1 <0>        -0.4261
      7 O1         -0.9667    2.6603   -4.5920 O.3       1 <0>        -0.4608
      8 C4          1.2610    1.7229   -2.7712 C.3       1 <0>        -0.0458
      9 C5          1.9857    3.0371   -2.4736 C.3       1 <0>        -0.0474
     10 C6          3.4150    2.9397   -2.9412 C.2       1 <0>         0.4944
     11 O2          3.6656    2.9118   -4.1340 O.co2     1 <0>        -0.6216
     12 O3          4.3207    2.8888   -2.1266 O.co2     1 <0>        -0.6701
     13 N4          1.9600    3.2939   -1.0274 N.4       1 <0>        -0.6156
     14 H1          0.0021   -0.0041    0.0020 H         1 <0>         0.1187
     15 H2          1.0099    1.4631    0.0003 H         1 <0>         0.0810
     16 H3         -0.5229    1.4373    0.9048 H         1 <0>         0.1047
     17 H4         -2.7342    1.7302   -0.6156 H         1 <0>         0.4691
     18 H5          1.7040    0.9217   -2.1796 H         1 <0>         0.1122
     19 H6          1.3564    1.4873   -3.8311 H         1 <0>         0.1419
     20 H7          1.4872    3.8533   -2.9964 H         1 <0>         0.1406
     21 H8          2.4379    4.1606   -0.8312 H         1 <0>         0.4368
     22 H9          1.0030    3.3591   -0.7143 H         1 <0>         0.4043
     23 H10         2.4214    2.5383   -0.5434 H         1 <0>         0.4297
@<TRIPOS>BOND
     1    1   14 1
     2    1   15 1
     3    1   16 1
     4    1    2 1
     5    2    6 1
     6    2    3 2
     7    3    8 1
     8    3    4 1
     9    4    7 1
    10    4    5 2
    11    5    6 1
    12    6   17 1
    13    8    9 1
    14    8   18 1
    15    8   19 1
    16    9   10 1
    17    9   13 1
    18    9   20 1
    19   10   11 2
    20   10   12 1
    21   13   21 1
    22   13   22 1
    23   13   23 1
@<TRIPOS>MOLECULE
CHEMBL104208
   22    22     0     0     0
SMALL
USER_CHARGES

@<TRIPOS>ATOM
      1 C1         -0.0127    1.0858    0.0080 C.3       1 <0>        -0.0593
      2 C2         -0.7416    1.5850   -1.2129 C.2       1 <0>        -0.0336
      3 C3         -0.2003    1.8639   -2.4217 C.2       1 <0>        -0.1179
      4 N1         -1.2221    2.2789   -3.2056 N.pl3     1 <0>        -0.0465
      5 N2         -2.3035    2.2492   -2.5081 N.2       1 <0>        -0.1237
      6 N3         -2.0518    1.8342   -1.3168 N.2       1 <0>        -0.3196
      7 O1         -1.1194    2.6778   -4.5604 O.3       1 <0>        -0.6049
      8 C4          1.2491    1.7382   -2.8151 C.3       1 <0>        -0.0247
      9 C5          1.9709    3.0569   -2.5306 C.3       1 <0>        -0.0377
     10 C6          3.4431    2.8937   -2.8081 C.2       1 <0>         0.4943
     11 O2          3.8834    3.1284   -3.9206 O.co2     1 <0>        -0.6728
     12 O3          4.1938    2.5270   -1.9202 O.co2     1 <0>        -0.6471
     13 N4          1.4236    4.1111   -3.3950 N.4       1 <0>        -0.6071
     14 H1          0.0021   -0.0041    0.0020 H         1 <0>         0.0650
     15 H2          1.0099    1.4631    0.0003 H         1 <0>         0.0682
     16 H3         -0.5229    1.4373    0.9048 H         1 <0>         0.0663
     17 H4          1.7138    0.9380   -2.2391 H         1 <0>         0.1113
     18 H5          1.3183    1.5081   -3.8783 H         1 <0>         0.0904
     19 H6          1.8264    3.3322   -1.4859 H         1 <0>         0.1266
     20 H7          0.4379    4.2203   -3.2092 H         1 <0>         0.4206
     21 H8          1.8996    4.9807   -3.2074 H         1 <0>         0.4175
     22 H9          1.5573    3.8563   -4.3620 H         1 <0>         0.4348
@<TRIPOS>BOND
     1    1   14 1
     2    1   15 1
     3    1   16 1
     4    1    2 1
     5    2    6 1
     6    2    3 2
     7    3    8 1
     8    3    4 1
     9    4    7 1
    10    4    5 1
    11    5    6 2
    12    8    9 1
    13    8   17 1
    14    8   18 1
    15    9   10 1
    16    9   13 1
    17    9   19 1
    18   10   11 2
    19   10   12 1
    20   13   20 1
    21   13   21 1
    22   13   22 1
@<TRIPOS>MOLECULE
CHEMBL104208
   23    23     0     0     0
SMALL
USER_CHARGES

@<TRIPOS>ATOM
      1 C1         -0.0127    1.0858    0.0080 C.3       1 <0>        -0.1098
      2 C2         -0.7416    1.5850   -1.2129 C.2       1 <0>         0.1418
      3 C3         -0.1971    1.8618   -2.4167 C.2       1 <0>        -0.0888
      4 N1         -1.1595    2.2789   -3.2420 N.pl3     1 <0>         0.0516
      5 N2         -2.2900    2.2819   -2.6250 N.2       1 <0>        -0.0284
      6 N3         -2.0687    1.8359   -1.3132 N.pl3     1 <0>        -0.4274
      7 O1         -0.9667    2.6603   -4.5920 O.3       1 <0>        -0.4909
      8 C4          1.2610    1.7229   -2.7712 C.3       1 <0>        -0.0461
      9 C5          1.9857    3.0371   -2.4736 C.3       1 <0>        -0.0451
     10 C6          3.4633    2.8610   -2.7114 C.2       1 <0>         0.4912
     11 O2          3.9347    3.0870   -3.8128 O.co2     1 <0>        -0.6579
     12 O3          4.1874    2.4925   -1.8023 O.co2     1 <0>        -0.6344
     13 N4          1.4698    4.0916   -3.3567 N.4       1 <0>        -0.6116
     14 H1          0.0021   -0.0041    0.0020 H         1 <0>         0.1105
     15 H2          1.0099    1.4631    0.0003 H         1 <0>         0.1130
     16 H3         -0.5229    1.4373    0.9048 H         1 <0>         0.0968
     17 H4         -2.7342    1.7302   -0.6156 H         1 <0>         0.4700
     18 H5          1.7040    0.9217   -2.1796 H         1 <0>         0.1356
     19 H6          1.3564    1.4873   -3.8311 H         1 <0>         0.1169
     20 H7          1.8159    3.3184   -1.4343 H         1 <0>         0.1328
     21 H8          0.4805    4.2095   -3.1975 H         1 <0>         0.4101
     22 H9          1.9477    4.9583   -3.1605 H         1 <0>         0.4294
     23 H10         1.6270    3.8312   -4.3188 H         1 <0>         0.4407
@<TRIPOS>BOND
     1    1   14 1
     2    1   15 1
     3    1   16 1
     4    1    2 1
     5    2    6 1
     6    2    3 2
     7    3    8 1
     8    3    4 1
     9    4    7 1
    10    4    5 2
    11    5    6 1
    12    6   17 1
    13    8    9 1
    14    8   18 1
    15    8   19 1
    16    9   10 1
    17    9   13 1
    18    9   20 1
    19   10   11 2
    20   10   12 1
    21   13   21 1
    22   13   22 1
    23   13   23 1
@<TRIPOS>MOLECULE
CHEMBL492469
   28    29     0     0     0
SMALL
USER_CHARGES

@<TRIPOS>ATOM
      1 C1         -0.1187    1.2515    0.2090 C.3       1 <0>         0.0010
      2 C2          1.3102    1.7778    0.0646 C.2       1 <0>        -0.2424
      3 C3          2.2659    0.8892   -0.2435 C.2       1 <0>         0.1771
      4 N1          3.5698    1.3339   -0.3811 N.am      1 <0>        -0.5417
      5 C4          3.9017    2.6196   -0.2154 C.2       1 <0>         0.6904
      6 O1          5.0598    2.9661   -0.3458 O.2       1 <0>        -0.5317
      7 N2          2.9615    3.5317    0.0942 N.am      1 <0>        -0.6511
      8 H1          3.2065    4.4627    0.2129 H         1 <0>         0.4415
      9 C5          1.6839    3.1479    0.2365 C.2       1 <0>         0.5605
     10 O2          0.8340    3.9740    0.5162 O.2       1 <0>        -0.4868
     11 C6          4.6180    0.3674   -0.7178 C.3       1 <0>         0.0956
     12 C7          5.1185   -0.3082    0.5605 C.3       1 <0>        -0.0665
     13 H2          4.3029   -0.8672    1.0192 H         1 <0>         0.1388
     14 C8          6.2454   -1.2500    0.2228 C.2       1 <0>         0.4931
     15 O3          7.3969   -0.8492    0.2270 O.co2     1 <0>        -0.6512
     16 O4          6.0057   -2.4128   -0.0547 O.co2     1 <0>        -0.6244
     17 N3          5.5996    0.7146    1.4988 N.4       1 <0>        -0.6126
     18 C9          1.8378   -0.5689   -0.4217 C.3       1 <0>        -0.0518
     19 S1          0.1656   -0.5613    0.3461 S.3       1 <0>        -0.2138
     20 H3         -0.5895    1.6423    1.1110 H         1 <0>         0.1267
     21 H4         -0.7130    1.4879   -0.6736 H         1 <0>         0.1178
     22 H5          4.2136   -0.3867   -1.3929 H         1 <0>         0.1393
     23 H6          5.4458    0.8838   -1.2038 H         1 <0>         0.1359
     24 H7          6.2899    1.2918    1.0422 H         1 <0>         0.4407
     25 H8          4.8252    1.2886    1.7968 H         1 <0>         0.4067
     26 H9          1.7814   -0.8330   -1.4777 H         1 <0>         0.1365
     27 H10         2.5096   -1.2411    0.1121 H         1 <0>         0.1355
     28 H11         6.0143    0.2659    2.3018 H         1 <0>         0.4369
@<TRIPOS>BOND
     1    1   19 1
     2    1    2 1
     3    1   20 1
     4    1   21 1
     5    2    9 1
     6    2    3 2
     7    3    4 1
     8    3   18 1
     9    4    5 am
    10    4   11 1
    11    5    6 2
    12    5    7 am
    13    7    8 1
    14    7    9 am
    15    9   10 2
    16   11   12 1
    17   11   22 1
    18   11   23 1
    19   12   13 1
    20   12   14 1
    21   12   17 1
    22   14   15 2
    23   14   16 1
    24   17   24 1
    25   17   25 1
    26   17   28 1
    27   18   19 1
    28   18   26 1
    29   18   27 1
@<TRIPOS>MOLECULE
CHEMBL492469
   27    28     0     0     0
SMALL
USER_CHARGES

@<TRIPOS>ATOM
      1 C1         -0.1184    1.2516    0.2147 C.3       1 <0>         0.0168
      2 C2          1.3099    1.7776    0.0686 C.2       1 <0>        -0.2762
      3 C3          2.2653    0.8887   -0.2389 C.2       1 <0>         0.1419
      4 N1          3.5627    1.3384   -0.3760 N.pl3     1 <0>        -0.5414
      5 C4          3.8847    2.6387   -0.2077 C.2       1 <0>         0.6016
      6 O1          5.1667    3.0323   -0.3507 O.3       1 <0>        -0.6729
      7 N2          2.9621    3.5255    0.0936 N.2       1 <0>        -0.6422
      8 C5          1.6901    3.1481    0.2383 C.2       1 <0>         0.5311
      9 O2          0.8410    3.9804    0.5182 O.2       1 <0>        -0.5655
     10 C6          4.6183    0.3799   -0.7125 C.3       1 <0>         0.0941
     11 C7          5.1228   -0.2927    0.5658 C.3       1 <0>        -0.0585
     12 H1          4.3113   -0.8587    1.0232 H         1 <0>         0.1259
     13 C8          6.2578   -1.2250    0.2286 C.2       1 <0>         0.4964
     14 O3          7.4059   -0.8148    0.2345 O.co2     1 <0>        -0.6610
     15 O4          6.0279   -2.3894   -0.0501 O.co2     1 <0>        -0.6425
     16 N3          5.5945    0.7332    1.5055 N.4       1 <0>        -0.6066
     17 C9          1.8385   -0.5692   -0.4151 C.3       1 <0>        -0.0339
     18 S1          0.1663   -0.5612    0.3531 S.3       1 <0>        -0.2731
     19 H2         -0.5884    1.6431    1.1169 H         1 <0>         0.1123
     20 H3         -0.7135    1.4872   -0.6675 H         1 <0>         0.1007
     21 H4          4.2199   -0.3769   -1.3883 H         1 <0>         0.1112
     22 H5          5.4426    0.9026   -1.1976 H         1 <0>         0.1249
     23 H6          6.2816    1.3155    1.0506 H         1 <0>         0.4428
     24 H7          4.8153    1.3015    1.8021 H         1 <0>         0.4149
     25 H8          1.7821   -0.8348   -1.4707 H         1 <0>         0.1170
     26 H9          2.5108   -1.2403    0.1196 H         1 <0>         0.1191
     27 H10         6.0107    0.2873    2.3093 H         1 <0>         0.4229
@<TRIPOS>BOND
     1    1   18 1
     2    1    2 1
     3    1   19 1
     4    1   20 1
     5    2    8 1
     6    2    3 2
     7    3    4 1
     8    3   17 1
     9    4    5 1
    10    4   10 1
    11    5    6 1
    12    5    7 2
    13    7    8 1
    14    8    9 2
    15   10   11 1
    16   10   21 1
    17   10   22 1
    18   11   12 1
    19   11   13 1
    20   11   16 1
    21   13   14 2
    22   13   15 1
    23   16   23 1
    24   16   24 1
    25   16   27 1
    26   17   18 1
    27   17   25 1
    28   17   26 1
@<TRIPOS>MOLECULE
CHEMBL33287
   39    41     0     0     0
SMALL
USER_CHARGES

@<TRIPOS>ATOM
      1 C1         -0.0178    1.4648    0.0101 C.3       1 <0>        -0.0449
      2 N1          0.0021   -0.0041    0.0020 N.4       1 <0>        -0.3854
      3 C2         -1.3724   -0.5427    0.1124 C.3       1 <0>         0.0053
      4 C3         -1.2470   -1.8228    0.9090 C.ar      1 <0>         0.0176
      5 C4         -2.1075   -2.8978    1.0550 C.ar      1 <0>        -0.6672
      6 C5         -1.7531   -3.9657    1.8550 C.ar      1 <0>         0.0837
      7 C6         -0.5290   -3.9586    2.5134 C.ar      1 <0>        -0.0946
      8 C7          0.3463   -2.8750    2.3695 C.ar      1 <0>         0.2734
      9 C8         -0.0270   -1.8085    1.5604 C.ar      1 <0>        -0.1800
     10 C9          0.6839   -0.5209    1.2103 C.3       1 <0>         0.0497
     11 N2          1.4948   -3.1043    3.1217 N.am      1 <0>        -0.6520
     12 C10         1.4372   -4.2839    3.7629 C.2       1 <0>         0.5429
     13 O1          2.2935   -4.7467    4.4909 O.2       1 <0>        -0.4282
     14 C11         0.1386   -4.9203    3.4229 C.2       1 <0>         0.0950
     15 N3         -0.3138   -6.0704    3.8335 N.2       1 <0>        -0.2040
     16 O2          0.4649   -6.8661    4.7085 O.3       1 <0>        -0.3453
     17 S1         -3.6583   -2.9026    0.2185 S.o2      1 <0>         2.6857
     18 O3         -3.3908   -2.5615   -1.1348 O.2       1 <0>        -0.9418
     19 O4         -4.3136   -4.1091    0.5848 O.2       1 <0>        -0.9283
     20 N4         -4.5588   -1.6644    0.8496 N.pl3     1 <0>        -1.0015
     21 C12        -4.4871   -0.3284    0.2528 C.3       1 <0>         0.0796
     22 C13        -5.4272   -1.9051    2.0047 C.3       1 <0>         0.0785
     23 H1          1.0047    1.8421    0.0024 H         1 <0>         0.1337
     24 H2         -0.5450    1.8259   -0.8730 H         1 <0>         0.1345
     25 H3         -0.5280    1.8163    0.9069 H         1 <0>         0.1275
     26 H4         -2.0135    0.1659    0.6368 H         1 <0>         0.1664
     27 H5         -1.7747   -0.7537   -0.8784 H         1 <0>         0.1705
     28 H6         -2.4249   -4.8037    1.9692 H         1 <0>         0.1761
     29 H7          1.7343   -0.7172    0.9951 H         1 <0>         0.1463
     30 H8          0.5935    0.1936    2.0284 H         1 <0>         0.1532
     31 H9          2.2433   -2.4896    3.1759 H         1 <0>         0.4302
     32 H10         0.0464   -7.7013    4.9580 H         1 <0>         0.4247
     33 H11        -5.2431   -0.2378   -0.5271 H         1 <0>         0.0763
     34 H12        -4.6664    0.4231    1.0217 H         1 <0>         0.0850
     35 H13        -3.4984   -0.1765   -0.1802 H         1 <0>         0.0581
     36 H14        -5.3490   -2.9494    2.3067 H         1 <0>         0.0915
     37 H15        -5.1192   -1.2639    2.8306 H         1 <0>         0.0684
     38 H16        -6.4595   -1.6809    1.7361 H         1 <0>         0.0781
     39 H17         0.4529   -0.3473   -0.8329 H         1 <0>         0.4411
@<TRIPOS>BOND
     1    1    2 1
     2    1   23 1
     3    1   24 1
     4    1   25 1
     5    2   10 1
     6    2    3 1
     7    2   39 1
     8    3    4 1
     9    3   26 1
    10    3   27 1
    11    4    9 ar
    12    4    5 ar
    13    5    6 ar
    14    5   17 1
    15    6    7 ar
    16    6   28 1
    17    7   14 1
    18    7    8 ar
    19    8    9 ar
    20    8   11 1
    21    9   10 1
    22   10   29 1
    23   10   30 1
    24   11   12 am
    25   11   31 1
    26   12   13 2
    27   12   14 1
    28   14   15 2
    29   15   16 1
    30   16   32 1
    31   17   18 2
    32   17   19 2
    33   17   20 1
    34   20   21 1
    35   20   22 1
    36   21   33 1
    37   21   34 1
    38   21   35 1
    39   22   36 1
    40   22   37 1
    41   22   38 1
@<TRIPOS>MOLECULE
CHEMBL33287
   38    40     0     0     0
SMALL
USER_CHARGES

@<TRIPOS>ATOM
      1 C1         -0.0178    1.4648    0.0101 C.3       1 <0>        -0.0399
      2 N1          0.0021   -0.0041    0.0020 N.4       1 <0>        -0.3888
      3 C2         -1.3723   -0.5428    0.1127 C.3       1 <0>         0.0125
      4 C3         -1.2469   -1.8230    0.9094 C.ar      1 <0>         0.0130
      5 C4         -2.1087   -2.8975    1.0545 C.ar      1 <0>        -0.7256
      6 C5         -1.7575   -3.9694    1.8549 C.ar      1 <0>         0.0819
      7 C6         -0.5389   -3.9664    2.5125 C.ar      1 <0>        -0.1750
      8 C7          0.3466   -2.8804    2.3727 C.ar      1 <0>         0.2980
      9 C8         -0.0272   -1.8083    1.5602 C.ar      1 <0>        -0.2011
     10 C9          0.6839   -0.5210    1.2103 C.3       1 <0>         0.0644
     11 N2          1.4674   -3.1144    3.1119 N.2       1 <0>        -0.6284
     12 C10         1.4314   -4.2549    3.7420 C.2       1 <0>         0.4621
     13 O1          2.4009   -4.7476    4.5477 O.3       1 <0>        -0.5664
     14 C11         0.1426   -4.9196    3.4239 C.2       1 <0>         0.1000
     15 N3         -0.2904   -6.0730    3.8470 N.2       1 <0>        -0.2598
     16 O2          0.5068   -6.8512    4.7211 O.3       1 <0>        -0.3644
     17 S1         -3.6587   -2.8986    0.2166 S.o2      1 <0>         2.6949
     18 O3         -3.3894   -2.5566   -1.1361 O.2       1 <0>        -0.9623
     19 O4         -4.3166   -4.1042    0.5811 O.2       1 <0>        -0.9492
     20 N4         -4.5576   -1.6594    0.8481 N.pl3     1 <0>        -1.0079
     21 C12        -4.4829   -0.3229    0.2527 C.3       1 <0>         0.0839
     22 C13        -5.4274   -1.8996    2.0022 C.3       1 <0>         0.0838
     23 H1          1.0047    1.8421    0.0024 H         1 <0>         0.1276
     24 H2         -0.5450    1.8259   -0.8730 H         1 <0>         0.1249
     25 H3         -0.5280    1.8163    0.9069 H         1 <0>         0.1226
     26 H4         -2.0133    0.1658    0.6372 H         1 <0>         0.1524
     27 H5         -1.7749   -0.7537   -0.8780 H         1 <0>         0.1565
     28 H6         -2.4316   -4.8058    1.9669 H         1 <0>         0.1487
     29 H7          1.7342   -0.7174    0.9950 H         1 <0>         0.1396
     30 H8          0.5936    0.1936    2.0284 H         1 <0>         0.1385
     31 H9          0.1020   -7.6902    4.9805 H         1 <0>         0.4007
     32 H10        -5.2381   -0.2302   -0.5278 H         1 <0>         0.0674
     33 H11        -4.6615    0.4281    1.0222 H         1 <0>         0.0787
     34 H12        -3.4935   -0.1724   -0.1792 H         1 <0>         0.0598
     35 H13        -5.3514   -2.9444    2.3032 H         1 <0>         0.0895
     36 H14        -5.1190   -1.2598    2.8290 H         1 <0>         0.0645
     37 H15        -6.4591   -1.6733    1.7329 H         1 <0>         0.0691
     38 H16         0.4527   -0.3473   -0.8330 H         1 <0>         0.4343
@<TRIPOS>BOND
     1    1    2 1
     2    1   23 1
     3    1   24 1
     4    1   25 1
     5    2   10 1
     6    2    3 1
     7    2   38 1
     8    3    4 1
     9    3   26 1
    10    3   27 1
    11    4    9 ar
    12    4    5 ar
    13    5    6 ar
    14    5   17 1
    15    6    7 ar
    16    6   28 1
    17    7   14 1
    18    7    8 ar
    19    8    9 ar
    20    8   11 1
    21    9   10 1
    22   10   29 1
    23   10   30 1
    24   11   12 2
    25   12   13 1
    26   12   14 1
    27   14   15 2
    28   15   16 1
    29   16   31 1
    30   17   18 2
    31   17   19 2
    32   17   20 1
    33   20   21 1
    34   20   22 1
    35   21   32 1
    36   21   33 1
    37   21   34 1
    38   22   35 1
    39   22   36 1
    40   22   37 1
@<TRIPOS>MOLECULE
CHEMBL33287
   38    40     0     0     0
SMALL
USER_CHARGES

@<TRIPOS>ATOM
      1 C1         -0.0178    1.4648    0.0101 C.3       1 <0>         0.0079
      2 N1          0.0021   -0.0041    0.0020 N.3       1 <0>        -0.4978
      3 C2         -1.3658   -0.5539    0.1359 C.3       1 <0>         0.0378
      4 C3         -1.2139   -1.8432    0.9128 C.ar      1 <0>         0.0517
      5 C4         -2.0635   -2.9262    1.0639 C.ar      1 <0>        -0.6862
      6 C5         -1.6840   -4.0018    1.8418 C.ar      1 <0>         0.0691
      7 C6         -0.4455   -3.9943    2.4728 C.ar      1 <0>        -0.1243
      8 C7          0.4189   -2.9028    2.3236 C.ar      1 <0>         0.2495
      9 C8          0.0203   -1.8286    1.5369 C.ar      1 <0>        -0.1469
     10 C9          0.7143   -0.5316    1.1880 C.3       1 <0>         0.0776
     11 N2          1.5855   -3.1334    3.0469 N.am      1 <0>        -0.6512
     12 C10         1.5504   -4.3216    3.6738 C.2       1 <0>         0.5436
     13 O1          2.4259   -4.7876    4.3765 O.2       1 <0>        -0.4524
     14 C11         0.2489   -4.9629    3.3546 C.2       1 <0>         0.1156
     15 N3         -0.1863   -6.1214    3.7601 N.2       1 <0>        -0.2258
     16 O2          0.6173   -6.9227    4.6071 O.3       1 <0>        -0.3604
     17 S1         -3.6325   -2.9313    0.2622 S.o2      1 <0>         2.6948
     18 O3         -3.3977   -2.5709   -1.0921 O.2       1 <0>        -0.9424
     19 O4         -4.2712   -4.1471    0.6272 O.2       1 <0>        -0.9470
     20 N4         -4.5272   -1.7078    0.9293 N.pl3     1 <0>        -1.0041
     21 C12        -4.4780   -0.3638    0.3485 C.3       1 <0>         0.0769
     22 C13        -5.3679   -1.9696    2.1002 C.3       1 <0>         0.0873
     23 H1          1.0047    1.8421    0.0024 H         1 <0>         0.0802
     24 H2         -0.5450    1.8259   -0.8730 H         1 <0>         0.0824
     25 H3         -0.5280    1.8163    0.9069 H         1 <0>         0.0370
     26 H4         -1.9999    0.1432    0.6837 H         1 <0>         0.0869
     27 H5         -1.7888   -0.7550   -0.8483 H         1 <0>         0.1262
     28 H6         -2.3472   -4.8459    1.9600 H         1 <0>         0.1636
     29 H7          1.7609   -0.7175    0.9469 H         1 <0>         0.0983
     30 H8          0.6374    0.1717    2.0172 H         1 <0>         0.0706
     31 H9          2.3308   -2.5142    3.0925 H         1 <0>         0.4275
     32 H10         0.2101   -7.7640    4.8549 H         1 <0>         0.4157
     33 H11        -5.2519   -0.2685   -0.4131 H         1 <0>         0.0670
     34 H12        -4.6452    0.3765    1.1310 H         1 <0>         0.0772
     35 H13        -3.5003   -0.1992   -0.1044 H         1 <0>         0.0757
     36 H14        -4.7453   -2.3196    2.9235 H         1 <0>         0.0614
     37 H15        -5.8770   -1.0518    2.3944 H         1 <0>         0.0845
     38 H16        -6.1068   -2.7320    1.8538 H         1 <0>         0.0722
@<TRIPOS>BOND
     1    1    2 1
     2    1   23 1
     3    1   24 1
     4    1   25 1
     5    2   10 1
     6    2    3 1
     7    3    4 1
     8    3   26 1
     9    3   27 1
    10    4    9 ar
    11    4    5 ar
    12    5    6 ar
    13    5   17 1
    14    6    7 ar
    15    6   28 1
    16    7   14 1
    17    7    8 ar
    18    8    9 ar
    19    8   11 1
    20    9   10 1
    21   10   29 1
    22   10   30 1
    23   11   12 am
    24   11   31 1
    25   12   13 2
    26   12   14 1
    27   14   15 2
    28   15   16 1
    29   16   32 1
    30   17   18 2
    31   17   19 2
    32   17   20 1
    33   20   21 1
    34   20   22 1
    35   21   33 1
    36   21   34 1
    37   21   35 1
    38   22   36 1
    39   22   37 1
    40   22   38 1
@<TRIPOS>MOLECULE
CHEMBL492630
   26    27     0     0     0
SMALL
USER_CHARGES

@<TRIPOS>ATOM
      1 C1         -0.0168    1.3874    0.0097 C.2       1 <0>        -0.2382
      2 C2          1.1478    2.0723    0.0022 C.2       1 <0>        -0.1813
      3 S1          2.3339    0.8812   -0.0155 S.3       1 <0>         0.3785
      4 C3          1.2888   -0.5488   -0.0132 C.2       1 <0>        -0.3521
      5 C4          0.0021   -0.0041    0.0020 C.2       1 <0>         0.1632
      6 N1         -1.0595   -0.9208    0.0068 N.am      1 <0>        -0.5392
      7 C5         -0.8228   -2.2415   -0.0025 C.2       1 <0>         0.7019
      8 O1         -1.7695   -3.0047    0.0025 O.2       1 <0>        -0.5179
      9 N2          0.4196   -2.7539   -0.0175 N.am      1 <0>        -0.6515
     10 H1          0.5461   -3.7156   -0.0242 H         1 <0>         0.4420
     11 C6          1.4938   -1.9324   -0.0226 C.2       1 <0>         0.6024
     12 O2          2.6224   -2.3902   -0.0362 O.2       1 <0>        -0.4927
     13 C7         -2.4403   -0.4314    0.0226 C.3       1 <0>         0.1107
     14 C8         -2.9345   -0.2529   -1.4143 C.3       1 <0>        -0.0661
     15 H2         -2.9785   -1.2243   -1.9068 H         1 <0>         0.1439
     16 C9         -4.3087    0.3655   -1.3997 C.2       1 <0>         0.4960
     17 O3         -4.4652    1.5125   -1.7822 O.co2     1 <0>        -0.6638
     18 O4         -5.2641   -0.2813   -1.0053 O.co2     1 <0>        -0.6206
     19 N3         -2.0103    0.6249   -2.1446 N.4       1 <0>        -0.6135
     20 H3         -0.9578    1.9173    0.0260 H         1 <0>         0.1495
     21 H4          1.2857    3.1434    0.0067 H         1 <0>         0.2115
     22 H5         -3.0752   -1.1519    0.5383 H         1 <0>         0.1473
     23 H6         -2.4806    0.5259    0.5423 H         1 <0>         0.1159
     24 H7         -1.9697    1.5242   -1.6887 H         1 <0>         0.4289
     25 H8         -1.0902    0.2109   -2.1544 H         1 <0>         0.4084
     26 H9         -2.3363    0.7427   -3.0922 H         1 <0>         0.4367
@<TRIPOS>BOND
     1    1    5 1
     2    1    2 2
     3    1   20 1
     4    2    3 1
     5    2   21 1
     6    3    4 1
     7    4   11 1
     8    4    5 2
     9    5    6 1
    10    6    7 am
    11    6   13 1
    12    7    8 2
    13    7    9 am
    14    9   10 1
    15    9   11 am
    16   11   12 2
    17   13   14 1
    18   13   22 1
    19   13   23 1
    20   14   15 1
    21   14   16 1
    22   14   19 1
    23   16   17 2
    24   16   18 1
    25   19   24 1
    26   19   25 1
    27   19   26 1
@<TRIPOS>MOLECULE
CHEMBL492629
   36    37     0     0     0
SMALL
USER_CHARGES

@<TRIPOS>ATOM
      1 C1         -0.0187    1.5258    0.0104 C.3       1 <0>        -0.1432
      2 C2          0.0021   -0.0041    0.0020 C.3       1 <0>        -0.0543
      3 C3         -1.4186   -0.5765    0.2003 C.3       1 <0>        -0.0470
      4 C4         -1.2259   -1.8204    1.0392 C.2       1 <0>        -0.2336
      5 C5         -0.0110   -1.8082    1.6248 C.2       1 <0>         0.1273
      6 N1          0.3593   -2.8535    2.4317 N.am      1 <0>        -0.5366
      7 C6         -0.4728   -3.8875    2.6445 C.2       1 <0>         0.6957
      8 O1         -0.1207   -4.8021    3.3641 O.2       1 <0>        -0.5146
      9 N2         -1.6905   -3.9241    2.0723 N.am      1 <0>        -0.6548
     10 H1         -2.2794   -4.6773    2.2358 H         1 <0>         0.4381
     11 C7         -2.0931   -2.9174    1.2721 C.2       1 <0>         0.5586
     12 O2         -3.1948   -2.9489    0.7540 O.2       1 <0>        -0.4962
     13 C8          1.6783   -2.8433    3.0691 C.3       1 <0>         0.1032
     14 C9          1.5805   -2.1559    4.4325 C.3       1 <0>        -0.0656
     15 H2          0.9458   -2.7470    5.0927 H         1 <0>         0.1439
     16 C10         2.9569   -2.0355    5.0343 C.2       1 <0>         0.4939
     17 O3          3.6349   -1.0468    4.8125 O.co2     1 <0>        -0.6588
     18 O4          3.3925   -2.9269    5.7430 O.co2     1 <0>        -0.6197
     19 N3          1.0004   -0.8167    4.2653 N.4       1 <0>        -0.6180
     20 C11         0.7425   -0.5529    1.2411 C.3       1 <0>        -0.0861
     21 C12         0.6302   -0.5327   -1.2891 C.3       1 <0>        -0.1444
     22 H3          1.0039    1.9031    0.0027 H         1 <0>         0.0670
     23 H4         -0.5459    1.8868   -0.8726 H         1 <0>         0.0707
     24 H5         -0.5289    1.8773    0.9072 H         1 <0>         0.0611
     25 H6         -2.0464    0.1421    0.7271 H         1 <0>         0.0906
     26 H7         -1.8611   -0.8335   -0.7621 H         1 <0>         0.0914
     27 H8          2.0252   -3.8679    3.2029 H         1 <0>         0.1446
     28 H9          2.3825   -2.3007    2.4384 H         1 <0>         0.1212
     29 H10         0.0789   -0.8973    3.8624 H         1 <0>         0.4087
     30 H11         0.9359   -0.3634    5.1644 H         1 <0>         0.4368
     31 H12         1.7754   -0.7933    0.9893 H         1 <0>         0.1082
     32 H13         0.7091    0.1723    2.0542 H         1 <0>         0.0877
     33 H14         1.6579   -0.1775   -1.3650 H         1 <0>         0.0659
     34 H15         0.6224   -1.6226   -1.2772 H         1 <0>         0.0583
     35 H16         0.0578   -0.1746   -2.1448 H         1 <0>         0.0692
     36 H17         1.5880   -0.2696    3.6542 H         1 <0>         0.4304
@<TRIPOS>BOND
     1    1    2 1
     2    1   22 1
     3    1   23 1
     4    1   24 1
     5    2   20 1
     6    2    3 1
     7    2   21 1
     8    3    4 1
     9    3   25 1
    10    3   26 1
    11    4   11 1
    12    4    5 2
    13    5    6 1
    14    5   20 1
    15    6    7 am
    16    6   13 1
    17    7    8 2
    18    7    9 am
    19    9   10 1
    20    9   11 am
    21   11   12 2
    22   13   14 1
    23   13   27 1
    24   13   28 1
    25   14   15 1
    26   14   16 1
    27   14   19 1
    28   16   17 2
    29   16   18 1
    30   19   29 1
    31   19   30 1
    32   19   36 1
    33   20   31 1
    34   20   32 1
    35   21   33 1
    36   21   34 1
    37   21   35 1
@<TRIPOS>MOLECULE
CHEMBL275040
   29    29     0     0     0
SMALL
USER_CHARGES

@<TRIPOS>ATOM
      1 C1          1.0799   -0.3943   -0.7951 C.3       1 <0>        -0.1264
      2 C2         -0.0539    0.0466    0.0944 C.2       1 <0>        -0.0851
      3 C3          0.1239    1.0269    0.9449 C.2       1 <0>        -0.2152
      4 C4         -1.3923   -0.6404    0.0054 C.3       1 <0>        -0.0829
      5 H1         -1.2738   -1.7222    0.0665 H         1 <0>         0.1010
      6 C5         -2.3455   -0.1298    1.1150 C.3       1 <0>        -0.0057
      7 N1         -3.6945   -0.3983    0.5543 N.4       1 <0>        -0.4952
      8 C6         -3.6039   -0.0757   -0.8862 C.3       1 <0>        -0.0344
      9 H2         -3.9248    0.9517   -1.0576 H         1 <0>         0.1243
     10 C7         -2.1258   -0.2430   -1.2962 C.3       1 <0>        -0.0443
     11 H3         -2.0240   -1.0302   -2.0432 H         1 <0>         0.1083
     12 C8         -1.5723    1.0774   -1.8356 C.3       1 <0>        -0.1808
     13 C9         -2.1700    1.3564   -3.1906 C.2       1 <0>         0.4629
     14 O1         -2.9649    0.5718   -3.6795 O.co2     1 <0>        -0.6259
     15 O2         -1.8586    2.3667   -3.7980 O.co2     1 <0>        -0.7225
     16 C10        -4.4676   -1.0222   -1.6795 C.2       1 <0>         0.4844
     17 O3         -5.1257   -1.8732   -1.1058 O.co2     1 <0>        -0.7147
     18 O4         -4.5083   -0.9368   -2.8951 O.co2     1 <0>        -0.5649
     19 H4          1.9427    0.2513   -0.6309 H         1 <0>         0.0649
     20 H5          1.3469   -1.4245   -0.5597 H         1 <0>         0.0674
     21 H6          0.7702   -0.3284   -1.8381 H         1 <0>         0.0792
     22 H7         -0.6562    1.2804    1.6475 H         1 <0>         0.0960
     23 H8          1.0505    1.5817    0.9435 H         1 <0>         0.1029
     24 H9         -2.1947   -0.6883    2.0388 H         1 <0>         0.1211
     25 H10        -2.2040    0.9380    1.2824 H         1 <0>         0.1276
     26 H11        -3.9359   -1.3700    0.6788 H         1 <0>         0.4255
     27 H12        -1.8299    1.8859   -1.1515 H         1 <0>         0.0481
     28 H13        -0.4881    1.0078   -1.9241 H         1 <0>         0.0711
     29 H14        -4.3805    0.1919    1.0005 H         1 <0>         0.4136
@<TRIPOS>BOND
     1    1    2 1
     2    1   19 1
     3    1   20 1
     4    1   21 1
     5    2    3 2
     6    2    4 1
     7    3   22 1
     8    3   23 1
     9    4    5 1
    10    4   10 1
    11    4    6 1
    12    6    7 1
    13    6   24 1
    14    6   25 1
    15    7    8 1
    16    7   26 1
    17    7   29 1
    18    8    9 1
    19    8   10 1
    20    8   16 1
    21   10   11 1
    22   10   12 1
    23   12   13 1
    24   12   27 1
    25   12   28 1
    26   13   14 2
    27   13   15 1
    28   16   17 2
    29   16   18 1
@<TRIPOS>MOLECULE
CHEMBL534682
   35    37     0     0     0
SMALL
USER_CHARGES

@<TRIPOS>ATOM
      1 C1         -0.0167    1.3788    0.0096 C.ar      1 <0>         0.0427
      2 C2          1.1946    2.0581    0.0017 C.ar      1 <0>        -0.1650
      3 C3          2.3728    1.3394   -0.0134 C.ar      1 <0>         0.1523
      4 N1          2.3606    0.0197   -0.0204 N.ar      1 <0>        -0.4994
      5 C4          1.2269   -0.6641   -0.0137 C.ar      1 <0>         0.4409
      6 C5          0.0021   -0.0041    0.0020 C.ar      1 <0>        -0.1975
      7 N2          1.2605   -2.0536   -0.0219 N.pl3     1 <0>        -0.7118
      8 C6          0.0099   -2.8167   -0.0145 C.3       1 <0>         0.1588
      9 C7          0.3210   -4.2912   -0.0258 C.ar      1 <0>        -0.1345
     10 C8          0.2548   -5.0010   -1.2076 C.ar      1 <0>        -0.0149
     11 C9          0.5400   -6.3556   -1.2243 C.ar      1 <0>        -0.0348
     12 C10         0.8925   -7.0063   -0.0593 C.ar      1 <0>        -0.0359
     13 C11         0.9621   -6.3019    1.1373 C.ar      1 <0>         0.1309
     14 C12         0.6801   -4.9345    1.1531 C.ar      1 <0>         0.1902
     15 N3          0.7498   -4.2107    2.3401 N.am      1 <0>        -0.6402
     16 C13         1.0973   -4.8268    3.4882 C.2       1 <0>         0.5123
     17 C14         1.4046   -6.2862    3.4703 C.2       1 <0>         0.5100
     18 N4          1.3180   -6.9652    2.3083 N.am      1 <0>        -0.6330
     19 O1          1.7195   -6.8595    4.4937 O.2       1 <0>        -0.4327
     20 O2          1.1599   -4.1994    4.5264 O.2       1 <0>        -0.4332
     21 N5          0.4660   -7.1091   -2.4962 N.pl3     1 <0>         0.0282
     22 O3          0.1570   -6.5415   -3.5180 O.2       1 <0>        -0.1397
     23 O4          0.7146   -8.2921   -2.5134 O.3       1 <0>        -0.1357
     24 H1         -0.9522    1.9182    0.0259 H         1 <0>         0.1773
     25 H2          1.2145    3.1379    0.0070 H         1 <0>         0.1834
     26 H3          3.3170    1.8637   -0.0200 H         1 <0>         0.2092
     27 H4         -0.9214   -0.5640    0.0078 H         1 <0>         0.1799
     28 H5          2.1120   -2.5181   -0.0325 H         1 <0>         0.4211
     29 H6         -0.5595   -2.5724    0.8822 H         1 <0>         0.1026
     30 H7         -0.5762   -2.5622   -0.8976 H         1 <0>         0.1189
     31 H8         -0.0208   -4.4979   -2.1226 H         1 <0>         0.1719
     32 H9          1.1141   -8.0631   -0.0772 H         1 <0>         0.1781
     33 H10         1.5157   -7.9146    2.2863 H         1 <0>         0.4351
     34 H11         0.5485   -3.2619    2.3413 H         1 <0>         0.4213
     35 H12         3.2030   -0.4611   -0.0310 H         1 <0>         0.4432
@<TRIPOS>BOND
     1    1    6 ar
     2    1    2 ar
     3    1   24 1
     4    2    3 ar
     5    2   25 1
     6    3    4 ar
     7    3   26 1
     8    4    5 ar
     9    4   35 1
    10    5    6 ar
    11    5    7 1
    12    6   27 1
    13    7    8 1
    14    7   28 1
    15    8    9 1
    16    8   29 1
    17    8   30 1
    18    9   14 ar
    19    9   10 ar
    20   10   11 ar
    21   10   31 1
    22   11   12 ar
    23   11   21 1
    24   12   13 ar
    25   12   32 1
    26   13   18 1
    27   13   14 ar
    28   14   15 1
    29   15   16 am
    30   15   34 1
    31   16   17 1
    32   16   20 2
    33   17   18 am
    34   17   19 2
    35   18   33 1
    36   21   22 2
    37   21   23 1
@<TRIPOS>MOLECULE
CHEMBL534682
   34    36     0     0     0
SMALL
USER_CHARGES

@<TRIPOS>ATOM
      1 C1         -0.0167    1.3788    0.0096 C.ar      1 <0>        -0.0322
      2 C2          1.1946    2.0581    0.0017 C.ar      1 <0>        -0.2272
      3 C3          2.3728    1.3394   -0.0134 C.ar      1 <0>         0.1497
      4 N1          2.3606    0.0197   -0.0204 N.ar      1 <0>        -0.5403
      5 C4          1.2269   -0.6641   -0.0132 C.ar      1 <0>         0.3973
      6 C5          0.0021   -0.0041    0.0020 C.ar      1 <0>        -0.2390
      7 N2          1.2605   -2.0537   -0.0210 N.pl3     1 <0>        -0.7317
      8 C6          0.0099   -2.8167   -0.0132 C.3       1 <0>         0.1702
      9 C7          0.3210   -4.2912   -0.0241 C.ar      1 <0>        -0.1118
     10 C8          0.2546   -5.0014   -1.2055 C.ar      1 <0>        -0.0172
     11 C9          0.5398   -6.3560   -1.2218 C.ar      1 <0>        -0.0395
     12 C10         0.8926   -7.0063   -0.0568 C.ar      1 <0>        -0.0452
     13 C11         0.9624   -6.3016    1.1396 C.ar      1 <0>         0.1223
     14 C12         0.6804   -4.9342    1.1550 C.ar      1 <0>         0.1926
     15 N3          0.7503   -4.2100    2.3418 N.am      1 <0>        -0.6336
     16 C13         1.0980   -4.8256    3.4901 C.2       1 <0>         0.5112
     17 C14         1.4052   -6.2851    3.4725 C.2       1 <0>         0.5123
     18 N4          1.3185   -6.9644    2.3108 N.am      1 <0>        -0.6316
     19 O1          1.7203   -6.8580    4.4961 O.2       1 <0>        -0.4467
     20 O2          1.1608   -4.1979    4.5280 O.2       1 <0>        -0.4409
     21 N5          0.4656   -7.1099   -2.4935 N.pl3     1 <0>         0.0339
     22 O3          0.1564   -6.5426   -3.5154 O.2       1 <0>        -0.1448
     23 O4          0.7141   -8.2930   -2.5103 O.3       1 <0>        -0.1489
     24 H1         -0.9522    1.9182    0.0259 H         1 <0>         0.1346
     25 H2          1.2145    3.1379    0.0070 H         1 <0>         0.1338
     26 H3          3.3170    1.8637   -0.0200 H         1 <0>         0.1574
     27 H4         -0.9214   -0.5640    0.0078 H         1 <0>         0.1311
     28 H5          2.1120   -2.5181   -0.0316 H         1 <0>         0.4074
     29 H6         -0.5593   -2.5721    0.8836 H         1 <0>         0.0795
     30 H7         -0.5763   -2.5625   -0.8962 H         1 <0>         0.0952
     31 H8         -0.0211   -4.4986   -2.1207 H         1 <0>         0.1698
     32 H9          1.1142   -8.0632   -0.0743 H         1 <0>         0.1727
     33 H10         1.5161   -7.9138    2.2890 H         1 <0>         0.4307
     34 H11         0.5489   -3.2611    2.3428 H         1 <0>         0.4290
@<TRIPOS>BOND
     1    1    6 ar
     2    1    2 ar
     3    1   24 1
     4    2    3 ar
     5    2   25 1
     6    3    4 ar
     7    3   26 1
     8    4    5 ar
     9    5    6 ar
    10    5    7 1
    11    6   27 1
    12    7    8 1
    13    7   28 1
    14    8    9 1
    15    8   29 1
    16    8   30 1
    17    9   14 ar
    18    9   10 ar
    19   10   11 ar
    20   10   31 1
    21   11   12 ar
    22   11   21 1
    23   12   13 ar
    24   12   32 1
    25   13   18 1
    26   13   14 ar
    27   14   15 1
    28   15   16 am
    29   15   34 1
    30   16   17 1
    31   16   20 2
    32   17   18 am
    33   17   19 2
    34   18   33 1
    35   21   22 2
    36   21   23 1
@<TRIPOS>MOLECULE
CHEMBL384010
   42    43     0     0     0
SMALL
USER_CHARGES

@<TRIPOS>ATOM
      1 C1         -0.0187    1.5258    0.0104 C.3       1 <0>        -0.1373
      2 C2          0.0021   -0.0041    0.0020 C.3       1 <0>        -0.0271
      3 C3          0.7421   -0.5109    1.2415 C.3       1 <0>        -0.1362
      4 C4         -1.4333   -0.5336    0.0129 C.3       1 <0>        -0.1416
      5 C5          0.7074   -0.4901   -1.2379 C.ar      1 <0>        -0.0777
      6 C6          0.0327   -1.2849   -2.1474 C.ar      1 <0>        -0.1284
      7 C7          0.6728   -1.7331   -3.2844 C.ar      1 <0>        -0.1042
      8 C8          2.0035   -1.3831   -3.5161 C.ar      1 <0>         0.0060
      9 C9          2.6784   -0.5812   -2.5950 C.ar      1 <0>        -0.0530
     10 C10         2.0253   -0.1349   -1.4646 C.ar      1 <0>        -0.1173
     11 C11         2.6964   -1.8608   -4.7335 C.2       1 <0>        -0.0407
     12 C12         2.9964   -3.2074   -5.0607 C.2       1 <0>        -0.0883
     13 C13         3.6514   -3.1968   -6.2937 C.2       1 <0>         0.0310
     14 N1          3.7563   -1.9126   -6.7167 N.pl3     1 <0>        -0.3721
     15 C14         3.1724   -1.0745   -5.7784 C.2       1 <0>         0.0560
     16 C15         3.0796    0.3292   -5.8667 C.2       1 <0>         0.4796
     17 O1          3.5787    0.9649   -6.9268 O.co2     1 <0>        -0.7023
     18 O2          2.4927    1.0211   -4.8900 O.co2     1 <0>        -0.6604
     19 C16         4.3819   -1.4797   -7.9686 C.3       1 <0>         0.0649
     20 S1          4.2436   -4.6149   -7.1557 S.3       1 <0>        -0.0803
     21 C17         2.7541   -5.6113   -7.4369 C.3       1 <0>        -0.1422
     22 C18         2.6862   -4.3625   -4.2732 C.1       1 <0>         0.3003
     23 N2          2.4402   -5.2788   -3.6484 N.1       1 <0>        -0.4406
     24 H1          1.0039    1.9031    0.0027 H         1 <0>         0.0577
     25 H2         -0.5459    1.8868   -0.8726 H         1 <0>         0.0577
     26 H3         -0.5289    1.8773    0.9072 H         1 <0>         0.0518
     27 H4          0.2319   -0.1594    2.1383 H         1 <0>         0.0527
     28 H5          0.7568   -1.6008    1.2356 H         1 <0>         0.0542
     29 H6          1.7647   -0.1336    1.2338 H         1 <0>         0.0567
     30 H7         -1.9605   -0.1726   -0.8702 H         1 <0>         0.0585
     31 H8         -1.4185   -1.6235    0.0069 H         1 <0>         0.0565
     32 H9         -1.9435   -0.1821    0.9097 H         1 <0>         0.0525
     33 H10        -0.9971   -1.5554   -1.9667 H         1 <0>         0.1190
     34 H11         0.1452   -2.3537   -3.9935 H         1 <0>         0.1116
     35 H12         3.7084   -0.3069   -2.7686 H         1 <0>         0.1164
     36 H13         2.5451    0.4897   -0.7532 H         1 <0>         0.1148
     37 H14         3.6328   -1.4565   -8.7601 H         1 <0>         0.0781
     38 H15         4.8039   -0.4832   -7.8384 H         1 <0>         0.1232
     39 H16         5.1746   -2.1774   -8.2389 H         1 <0>         0.0803
     40 H17         2.3046   -5.8713   -6.4785 H         1 <0>         0.0789
     41 H18         2.0405   -5.0388   -8.0295 H         1 <0>         0.0826
     42 H19         3.0221   -6.5226   -7.9716 H         1 <0>         0.1086
@<TRIPOS>BOND
     1    1    2 1
     2    1   24 1
     3    1   25 1
     4    1   26 1
     5    2    3 1
     6    2    4 1
     7    2    5 1
     8    3   27 1
     9    3   28 1
    10    3   29 1
    11    4   30 1
    12    4   31 1
    13    4   32 1
    14    5   10 ar
    15    5    6 ar
    16    6    7 ar
    17    6   33 1
    18    7    8 ar
    19    7   34 1
    20    8    9 ar
    21    8   11 1
    22    9   10 ar
    23    9   35 1
    24   10   36 1
    25   11   15 2
    26   11   12 1
    27   12   13 2
    28   12   22 1
    29   13   14 1
    30   13   20 1
    31   14   15 1
    32   14   19 1
    33   15   16 1
    34   16   17 2
    35   16   18 1
    36   19   37 1
    37   19   38 1
    38   19   39 1
    39   20   21 1
    40   21   40 1
    41   21   41 1
    42   21   42 1
    43   22   23 3
@<TRIPOS>MOLECULE
CHEMBL19955
   37    41     0     0     0
SMALL
USER_CHARGES

@<TRIPOS>ATOM
      1 C1         -0.0166    1.3750    0.0096 C.ar      1 <0>        -0.1049
      2 C2          1.1679    2.0902    0.0021 C.ar      1 <0>        -0.1105
      3 C3          2.3818    1.4246   -0.0135 C.ar      1 <0>        -0.0750
      4 C4          2.4102    0.0482   -0.0212 C.ar      1 <0>        -0.0922
      5 C5          1.2236   -0.6826   -0.0133 C.ar      1 <0>        -0.0275
      6 C6          0.0021   -0.0041    0.0020 C.ar      1 <0>        -0.0915
      7 C7          1.5392   -2.1310   -0.0243 C.2       1 <0>         0.1544
      8 C8          2.8683   -2.3149   -0.0385 C.2       1 <0>         0.0038
      9 N1          3.4209   -3.5831   -0.0512 N.pl3     1 <0>        -0.3529
     10 C9          4.6957   -4.0187   -0.0662 C.2       1 <0>         0.0017
     11 C10         4.6473   -5.4014   -0.0737 C.2       1 <0>        -0.0126
     12 N2          3.3540   -5.7661   -0.0630 N.2       1 <0>        -0.3657
     13 C11         2.6069   -4.6876   -0.0494 C.2       1 <0>         0.1043
     14 C12         1.1471   -4.4830   -0.0334 C.2       1 <0>         0.6075
     15 N3          0.6700   -3.2232   -0.0215 N.am      1 <0>        -0.6295
     16 O1          0.3875   -5.4340   -0.0315 O.2       1 <0>        -0.4918
     17 C13         5.8051   -6.3102   -0.0910 C.2       1 <0>         0.5612
     18 O2          6.9405   -5.8545   -0.1003 O.co2     1 <0>        -0.6843
     19 O3          5.6321   -7.5214   -0.0962 O.co2     1 <0>        -0.6614
     20 C14         3.5346   -0.9564   -0.0378 C.3       1 <0>         0.2741
     21 N4          4.3686   -0.8023    1.1567 N.am      1 <0>        -0.6146
     22 C15         5.8071   -0.5065    1.1813 C.3       1 <0>         0.1040
     23 C16         6.1911   -0.4480    2.6416 C.2       1 <0>        -0.1037
     24 C17         5.0877   -0.6851    3.3437 C.2       1 <0>        -0.2032
     25 C18         3.9571   -0.8998    2.4348 C.2       1 <0>         0.5348
     26 O4          2.8160   -1.1338    2.7842 O.2       1 <0>        -0.5123
     27 H1         -0.9607    1.8994    0.0260 H         1 <0>         0.1316
     28 H2          1.1455    3.1700    0.0082 H         1 <0>         0.1318
     29 H3          3.3054    1.9844   -0.0200 H         1 <0>         0.1291
     30 H4         -0.9250   -0.5581    0.0083 H         1 <0>         0.1279
     31 H5          5.5851   -3.4059   -0.0718 H         1 <0>         0.1871
     32 H6          4.1373   -0.8321   -0.9374 H         1 <0>         0.1307
     33 H7          6.3623   -1.2980    0.6779 H         1 <0>         0.1054
     34 H8          6.0018    0.4532    0.7026 H         1 <0>         0.1022
     35 H9          7.1757   -0.2513    3.0394 H         1 <0>         0.1670
     36 H10         5.0315   -0.7119    4.4219 H         1 <0>         0.1558
     37 H11        -0.2883   -3.0734   -0.0109 H         1 <0>         0.4193
@<TRIPOS>BOND
     1    1    6 ar
     2    1    2 ar
     3    1   27 1
     4    2    3 ar
     5    2   28 1
     6    3    4 ar
     7    3   29 1
     8    4   20 1
     9    4    5 ar
    10    5    6 ar
    11    5    7 1
    12    6   30 1
    13    7   15 1
    14    7    8 2
    15    8    9 1
    16    8   20 1
    17    9   13 1
    18    9   10 1
    19   10   11 2
    20   10   31 1
    21   11   12 1
    22   11   17 1
    23   12   13 2
    24   13   14 1
    25   14   15 am
    26   14   16 2
    27   15   37 1
    28   17   18 2
    29   17   19 1
    30   20   21 1
    31   20   32 1
    32   21   25 am
    33   21   22 1
    34   22   23 1
    35   22   33 1
    36   22   34 1
    37   23   24 2
    38   23   35 1
    39   24   25 1
    40   24   36 1
    41   25   26 2
@<TRIPOS>MOLECULE
CHEMBL19955
   36    40     0     0     0
SMALL
USER_CHARGES

@<TRIPOS>ATOM
      1 C1         -0.0166    1.3753    0.0096 C.ar      1 <0>        -0.1176
      2 C2          1.1682    2.0896    0.0021 C.ar      1 <0>        -0.1337
      3 C3          2.3809    1.4227   -0.0135 C.ar      1 <0>        -0.0877
      4 C4          2.4080    0.0452   -0.0212 C.ar      1 <0>        -0.1029
      5 C5          1.2218   -0.6828   -0.0133 C.ar      1 <0>         0.0112
      6 C6          0.0021   -0.0041    0.0020 C.ar      1 <0>        -0.0887
      7 C7          1.5345   -2.1362   -0.0238 C.2       1 <0>         0.2063
      8 C8          2.8789   -2.3166   -0.0378 C.2       1 <0>        -0.1561
      9 N1          3.4199   -3.5752   -0.0491 N.pl3     1 <0>        -0.3097
     10 C9          4.6886   -4.0349   -0.0637 C.2       1 <0>        -0.0635
     11 C10         4.6170   -5.4139   -0.0695 C.2       1 <0>        -0.0301
     12 N2          3.3163   -5.7595   -0.0584 N.2       1 <0>        -0.4165
     13 C11         2.5839   -4.6661   -0.0461 C.2       1 <0>         0.1138
     14 C12         1.1395   -4.4287   -0.0308 C.2       1 <0>         0.5127
     15 N3          0.6941   -3.1951   -0.0214 N.2       1 <0>        -0.6157
     16 O1          0.2731   -5.4708   -0.0269 O.3       1 <0>        -0.6507
     17 C13         5.7605   -6.3415   -0.0856 C.2       1 <0>         0.5672
     18 O2          6.9029   -5.9040   -0.0951 O.co2     1 <0>        -0.7040
     19 O3          5.5681   -7.5496   -0.0894 O.co2     1 <0>        -0.6788
     20 C14         3.5362   -0.9555   -0.0373 C.3       1 <0>         0.2896
     21 N4          4.3695   -0.7971    1.1571 N.am      1 <0>        -0.6076
     22 C15         5.8069   -0.4958    1.1815 C.3       1 <0>         0.1056
     23 C16         6.1906   -0.4344    2.6418 C.2       1 <0>        -0.1177
     24 C17         5.0880   -0.6750    3.3441 C.2       1 <0>        -0.1979
     25 C18         3.9583   -0.8949    2.4353 C.2       1 <0>         0.5287
     26 O4          2.8180   -1.1329    2.7848 O.2       1 <0>        -0.5088
     27 H1         -0.9605    1.9000    0.0260 H         1 <0>         0.1202
     28 H2          1.1468    3.1693    0.0081 H         1 <0>         0.1189
     29 H3          3.3050    1.9815   -0.0201 H         1 <0>         0.1163
     30 H4         -0.9252   -0.5578    0.0083 H         1 <0>         0.1291
     31 H5          5.5886   -3.4379   -0.0702 H         1 <0>         0.1641
     32 H6          4.1388   -0.8286   -0.9367 H         1 <0>         0.1031
     33 H7          6.3652   -1.2856    0.6790 H         1 <0>         0.0990
     34 H8          5.9980    0.4642    0.7019 H         1 <0>         0.0928
     35 H9          7.1744   -0.2335    3.0394 H         1 <0>         0.1596
     36 H10         5.0318   -0.7009    4.4223 H         1 <0>         0.1495
@<TRIPOS>BOND
     1    1    6 ar
     2    1    2 ar
     3    1   27 1
     4    2    3 ar
     5    2   28 1
     6    3    4 ar
     7    3   29 1
     8    4   20 1
     9    4    5 ar
    10    5    6 ar
    11    5    7 1
    12    6   30 1
    13    7   15 1
    14    7    8 2
    15    8    9 1
    16    8   20 1
    17    9   13 1
    18    9   10 1
    19   10   11 2
    20   10   31 1
    21   11   12 1
    22   11   17 1
    23   12   13 2
    24   13   14 1
    25   14   15 2
    26   14   16 1
    27   17   18 2
    28   17   19 1
    29   20   21 1
    30   20   32 1
    31   21   25 am
    32   21   22 1
    33   22   23 1
    34   22   33 1
    35   22   34 1
    36   23   24 2
    37   23   35 1
    38   24   25 1
    39   24   36 1
    40   25   26 2
@<TRIPOS>MOLECULE
CHEMBL19955
   37    41     0     0     0
SMALL
USER_CHARGES

@<TRIPOS>ATOM
      1 C1         -0.0166    1.3750    0.0096 C.ar      1 <0>        -0.1049
      2 C2          1.1679    2.0902    0.0021 C.ar      1 <0>        -0.1105
      3 C3          2.3818    1.4246   -0.0135 C.ar      1 <0>        -0.0749
      4 C4          2.4102    0.0482   -0.0212 C.ar      1 <0>        -0.0919
      5 C5          1.2236   -0.6826   -0.0133 C.ar      1 <0>        -0.0276
      6 C6          0.0021   -0.0041    0.0020 C.ar      1 <0>        -0.0915
      7 C7          1.5392   -2.1310   -0.0243 C.2       1 <0>         0.1545
      8 C8          2.8683   -2.3149   -0.0385 C.2       1 <0>         0.0034
      9 N1          3.4209   -3.5831   -0.0512 N.pl3     1 <0>        -0.3529
     10 C9          4.6957   -4.0187   -0.0662 C.2       1 <0>         0.0015
     11 C10         4.6473   -5.4014   -0.0737 C.2       1 <0>        -0.0126
     12 N2          3.3540   -5.7661   -0.0630 N.2       1 <0>        -0.3657
     13 C11         2.6069   -4.6876   -0.0494 C.2       1 <0>         0.1044
     14 C12         1.1471   -4.4830   -0.0334 C.2       1 <0>         0.6075
     15 N3          0.6700   -3.2232   -0.0215 N.am      1 <0>        -0.6295
     16 O1          0.3875   -5.4340   -0.0315 O.2       1 <0>        -0.4918
     17 C13         5.8051   -6.3102   -0.0910 C.2       1 <0>         0.5612
     18 O2          6.9405   -5.8545   -0.1003 O.co2     1 <0>        -0.6843
     19 O3          5.6321   -7.5214   -0.0962 O.co2     1 <0>        -0.6613
     20 C14         3.5346   -0.9564   -0.0378 C.3       1 <0>         0.2740
     21 N4          4.3447   -0.7894   -1.2469 N.am      1 <0>        -0.6146
     22 C15         5.7848   -0.5048   -1.2969 C.3       1 <0>         0.1038
     23 C16         6.1391   -0.4272   -2.7638 C.2       1 <0>        -0.1035
     24 C17         5.0194   -0.6447   -3.4464 C.2       1 <0>        -0.2034
     25 C18         3.9080   -0.8741   -2.5176 C.2       1 <0>         0.5348
     26 O4          2.7603   -1.1049   -2.8467 O.2       1 <0>        -0.5123
     27 H1         -0.9607    1.8994    0.0260 H         1 <0>         0.1316
     28 H2          1.1455    3.1700    0.0082 H         1 <0>         0.1318
     29 H3          3.3054    1.9844   -0.0200 H         1 <0>         0.1292
     30 H4         -0.9250   -0.5581    0.0083 H         1 <0>         0.1279
     31 H5          5.5851   -3.4059   -0.0718 H         1 <0>         0.1870
     32 H6          4.1551   -0.8417    0.8510 H         1 <0>         0.1307
     33 H7          5.9974    0.4459   -0.8080 H         1 <0>         0.1025
     34 H8          6.3437   -1.3083   -0.8172 H         1 <0>         0.1052
     35 H9          7.1167   -0.2317   -3.1790 H         1 <0>         0.1670
     36 H10         4.9407   -0.6546   -4.5235 H         1 <0>         0.1558
     37 H11        -0.2883   -3.0734   -0.0109 H         1 <0>         0.4193
@<TRIPOS>BOND
     1    1    6 ar
     2    1    2 ar
     3    1   27 1
     4    2    3 ar
     5    2   28 1
     6    3    4 ar
     7    3   29 1
     8    4   20 1
     9    4    5 ar
    10    5    6 ar
    11    5    7 1
    12    6   30 1
    13    7   15 1
    14    7    8 2
    15    8    9 1
    16    8   20 1
    17    9   13 1
    18    9   10 1
    19   10   11 2
    20   10   31 1
    21   11   12 1
    22   11   17 1
    23   12   13 2
    24   13   14 1
    25   14   15 am
    26   14   16 2
    27   15   37 1
    28   17   18 2
    29   17   19 1
    30   20   21 1
    31   20   32 1
    32   21   25 am
    33   21   22 1
    34   22   23 1
    35   22   33 1
    36   22   34 1
    37   23   24 2
    38   23   35 1
    39   24   25 1
    40   24   36 1
    41   25   26 2
@<TRIPOS>MOLECULE
CHEMBL19955
   36    40     0     0     0
SMALL
USER_CHARGES

@<TRIPOS>ATOM
      1 C1         -0.0166    1.3753    0.0096 C.ar      1 <0>        -0.1176
      2 C2          1.1682    2.0896    0.0021 C.ar      1 <0>        -0.1337
      3 C3          2.3809    1.4227   -0.0135 C.ar      1 <0>        -0.0876
      4 C4          2.4080    0.0452   -0.0212 C.ar      1 <0>        -0.1026
      5 C5          1.2218   -0.6828   -0.0133 C.ar      1 <0>         0.0112
      6 C6          0.0021   -0.0041    0.0020 C.ar      1 <0>        -0.0887
      7 C7          1.5345   -2.1362   -0.0238 C.2       1 <0>         0.2063
      8 C8          2.8789   -2.3166   -0.0378 C.2       1 <0>        -0.1564
      9 N1          3.4199   -3.5752   -0.0491 N.pl3     1 <0>        -0.3097
     10 C9          4.6886   -4.0349   -0.0637 C.2       1 <0>        -0.0638
     11 C10         4.6170   -5.4139   -0.0695 C.2       1 <0>        -0.0301
     12 N2          3.3163   -5.7595   -0.0584 N.2       1 <0>        -0.4165
     13 C11         2.5839   -4.6661   -0.0461 C.2       1 <0>         0.1139
     14 C12         1.1395   -4.4287   -0.0308 C.2       1 <0>         0.5127
     15 N3          0.6941   -3.1951   -0.0214 N.2       1 <0>        -0.6157
     16 O1          0.2731   -5.4708   -0.0269 O.3       1 <0>        -0.6507
     17 C13         5.7605   -6.3415   -0.0856 C.2       1 <0>         0.5672
     18 O2          6.9029   -5.9040   -0.0951 O.co2     1 <0>        -0.7040
     19 O3          5.5681   -7.5496   -0.0894 O.co2     1 <0>        -0.6787
     20 C14         3.5362   -0.9555   -0.0373 C.3       1 <0>         0.2895
     21 N4          4.3461   -0.7849   -1.2461 N.am      1 <0>        -0.6076
     22 C15         5.7851   -0.4948   -1.2956 C.3       1 <0>         0.1055
     23 C16         6.1395   -0.4152   -2.7623 C.2       1 <0>        -0.1174
     24 C17         5.0209   -0.6365   -3.4453 C.2       1 <0>        -0.1982
     25 C18         3.9101   -0.8707   -2.5169 C.2       1 <0>         0.5288
     26 O4          2.7633   -1.1056   -2.8465 O.2       1 <0>        -0.5088
     27 H1         -0.9605    1.9000    0.0260 H         1 <0>         0.1202
     28 H2          1.1468    3.1693    0.0081 H         1 <0>         0.1189
     29 H3          3.3050    1.9815   -0.0201 H         1 <0>         0.1163
     30 H4         -0.9252   -0.5578    0.0083 H         1 <0>         0.1291
     31 H5          5.5886   -3.4379   -0.0702 H         1 <0>         0.1640
     32 H6          4.1562   -0.8377    0.8514 H         1 <0>         0.1031
     33 H7          5.9939    0.4565   -0.8061 H         1 <0>         0.0931
     34 H8          6.3469   -1.2964   -0.8160 H         1 <0>         0.0988
     35 H9          7.1165   -0.2157   -3.1771 H         1 <0>         0.1596
     36 H10         4.9426   -0.6462   -4.5224 H         1 <0>         0.1495
@<TRIPOS>BOND
     1    1    6 ar
     2    1    2 ar
     3    1   27 1
     4    2    3 ar
     5    2   28 1
     6    3    4 ar
     7    3   29 1
     8    4   20 1
     9    4    5 ar
    10    5    6 ar
    11    5    7 1
    12    6   30 1
    13    7   15 1
    14    7    8 2
    15    8    9 1
    16    8   20 1
    17    9   13 1
    18    9   10 1
    19   10   11 2
    20   10   31 1
    21   11   12 1
    22   11   17 1
    23   12   13 2
    24   13   14 1
    25   14   15 2
    26   14   16 1
    27   17   18 2
    28   17   19 1
    29   20   21 1
    30   20   32 1
    31   21   25 am
    32   21   22 1
    33   22   23 1
    34   22   33 1
    35   22   34 1
    36   23   24 2
    37   23   35 1
    38   24   25 1
    39   24   36 1
    40   25   26 2
@<TRIPOS>MOLECULE
CHEMBL298791
   58    62     0     0     0
SMALL
USER_CHARGES

@<TRIPOS>ATOM
      1 C1         -0.0167    1.3769    0.0096 C.ar      1 <0>        -0.1014
      2 C2          1.1704    2.0865    0.0021 C.ar      1 <0>        -0.0820
      3 C3          2.3797    1.4168   -0.0131 C.ar      1 <0>        -0.0991
      4 C4          2.4057    0.0346   -0.0208 C.ar      1 <0>        -0.0216
      5 C5          1.2145   -0.6807   -0.0132 C.ar      1 <0>         0.0950
      6 C6          0.0021   -0.0041    0.0020 C.ar      1 <0>        -0.0861
      7 N1          1.2367   -2.0814   -0.0215 N.am      1 <0>        -0.4939
      8 C7          1.2532   -2.7626    1.1565 C.2       1 <0>         0.3954
      9 N2          1.2741   -4.0585    1.2308 N.2       1 <0>        -0.5106
     10 C8          1.2805   -4.8349    0.1181 C.ar      1 <0>         0.1398
     11 C9          1.3025   -6.2290    0.1987 C.ar      1 <0>        -0.0758
     12 C10         1.3079   -6.9793   -0.9551 C.ar      1 <0>        -0.1026
     13 C11         1.2922   -6.3661   -2.2035 C.ar      1 <0>         0.0947
     14 C12         1.2708   -4.9906   -2.3081 C.ar      1 <0>        -0.0751
     15 C13         1.2641   -4.2144   -1.1507 C.ar      1 <0>        -0.1619
     16 C14         1.2358   -2.7454   -1.2008 C.2       1 <0>         0.5549
     17 O1          1.2161   -2.1492   -2.2620 O.2       1 <0>        -0.4741
     18 F1          1.2983   -7.1234   -3.3223 F         1 <0>        -0.1253
     19 C15         1.2475   -1.9726    2.4398 C.3       1 <0>         0.1738
     20 N3          1.2675   -2.8926    3.5797 N.pl3     1 <0>        -0.7259
     21 C16         1.2664   -2.3900    4.8829 C.ar      1 <0>         0.2279
     22 C17         1.2404   -1.0180    5.0999 C.ar      1 <0>        -0.1708
     23 C18         1.2388   -0.5245    6.3895 C.ar      1 <0>        -0.0608
     24 C19         1.2635   -1.3943    7.4645 C.ar      1 <0>        -0.1552
     25 C20         1.2899   -2.7603    7.2521 C.ar      1 <0>        -0.1084
     26 C21         1.2853   -3.2608    5.9647 C.ar      1 <0>        -0.1734
     27 C22         1.3177   -3.7042    8.4265 C.3       1 <0>         0.0483
     28 N4         -0.0579   -4.0392    8.8183 N.4       1 <0>        -0.3919
     29 C23        -0.7010   -4.8710    7.7691 C.3       1 <0>        -0.0045
     30 C24        -1.8449   -5.5837    8.5335 C.3       1 <0>        -0.1458
     31 C25        -1.2101   -5.8749    9.9126 C.3       1 <0>        -0.1450
     32 C26        -0.0518   -4.8685   10.0429 C.3       1 <0>        -0.0093
     33 Cl1         3.9243   -0.8061   -0.0404 Cl        1 <0>        -0.0473
     34 H1         -0.9595    1.9033    0.0260 H         1 <0>         0.1446
     35 H2          1.1526    3.1664    0.0077 H         1 <0>         0.1461
     36 H3          3.3050    1.9738   -0.0193 H         1 <0>         0.1480
     37 H4         -0.9255   -0.5572    0.0083 H         1 <0>         0.1389
     38 H5          1.3156   -6.7162    1.1624 H         1 <0>         0.1520
     39 H6          1.3249   -8.0572   -0.8904 H         1 <0>         0.1532
     40 H7          1.2594   -4.5189   -3.2796 H         1 <0>         0.1554
     41 H8          2.1278   -1.3308    2.4753 H         1 <0>         0.0983
     42 H9          0.3481   -1.3584    2.4843 H         1 <0>         0.0997
     43 H10         1.2816   -3.8508    3.4294 H         1 <0>         0.4209
     44 H11         1.2218   -0.3382    4.2609 H         1 <0>         0.1296
     45 H12         1.2186    0.5420    6.5590 H         1 <0>         0.1341
     46 H13         1.2626   -1.0057    8.4722 H         1 <0>         0.1266
     47 H14         1.3011   -4.3280    5.7995 H         1 <0>         0.1280
     48 H15         1.8483   -4.6148    8.1483 H         1 <0>         0.1334
     49 H16         1.8281   -3.2278    9.2636 H         1 <0>         0.1359
     50 H17        -1.1026   -4.2437    6.9733 H         1 <0>         0.1340
     51 H18         0.0051   -5.5981    7.3680 H         1 <0>         0.1315
     52 H19        -2.7078   -4.9259    8.6372 H         1 <0>         0.0968
     53 H20        -2.1235   -6.5113    8.0334 H         1 <0>         0.1152
     54 H21        -1.9402   -5.7162   10.7063 H         1 <0>         0.1042
     55 H22        -0.8298   -6.8959    9.9460 H         1 <0>         0.1031
     56 H23         0.8955   -5.4014   10.1258 H         1 <0>         0.1306
     57 H24        -0.2043   -4.2382   10.9190 H         1 <0>         0.1317
     58 H25        -0.5914   -3.1966    8.9713 H         1 <0>         0.4266
@<TRIPOS>BOND
     1    1    6 ar
     2    1    2 ar
     3    1   34 1
     4    2    3 ar
     5    2   35 1
     6    3    4 ar
     7    3   36 1
     8    4    5 ar
     9    4   33 1
    10    5    6 ar
    11    5    7 1
    12    6   37 1
    13    7   16 am
    14    7    8 1
    15    8    9 2
    16    8   19 1
    17    9   10 1
    18   10   15 ar
    19   10   11 ar
    20   11   12 ar
    21   11   38 1
    22   12   13 ar
    23   12   39 1
    24   13   14 ar
    25   13   18 1
    26   14   15 ar
    27   14   40 1
    28   15   16 1
    29   16   17 2
    30   19   20 1
    31   19   41 1
    32   19   42 1
    33   20   21 1
    34   20   43 1
    35   21   26 ar
    36   21   22 ar
    37   22   23 ar
    38   22   44 1
    39   23   24 ar
    40   23   45 1
    41   24   25 ar
    42   24   46 1
    43   25   26 ar
    44   25   27 1
    45   26   47 1
    46   27   28 1
    47   27   48 1
    48   27   49 1
    49   28   32 1
    50   28   29 1
    51   28   58 1
    52   29   30 1
    53   29   50 1
    54   29   51 1
    55   30   31 1
    56   30   52 1
    57   30   53 1
    58   31   32 1
    59   31   54 1
    60   31   55 1
    61   32   56 1
    62   32   57 1
@<TRIPOS>MOLECULE
CHEMBL1094129
   18    18     0     0     0
SMALL
USER_CHARGES

@<TRIPOS>ATOM
      1 C1         -0.0187    1.5258    0.0104 C.3       1 <0>        -0.0774
      2 C2         -0.7475    2.0250   -1.2105 C.2       1 <0>         0.0748
      3 C3         -2.1373    2.2794   -1.2868 C.2       1 <0>         0.2745
      4 N1         -2.4310    2.7002   -2.4852 N.2       1 <0>        -0.2978
      5 O1         -1.2246    2.7315   -3.2309 O.3       1 <0>         0.0358
      6 N2         -0.1977    2.2944   -2.3554 N.2       1 <0>        -0.2690
      7 O2         -3.0240    2.1118   -0.2732 O.3       1 <0>        -0.4394
      8 C4          0.0021   -0.0041    0.0020 C.3       1 <0>         0.0320
      9 C5          0.6216   -0.5051    1.2812 C.2       1 <0>         0.5054
     10 O3          0.0243   -0.3817    2.3369 O.co2     1 <0>        -0.6962
     11 O4          1.7200   -1.0338    1.2603 O.co2     1 <0>        -0.6750
     12 N3          0.7922   -0.4768   -1.1426 N.3       1 <0>        -0.8192
     13 H1          1.0039    1.9031    0.0027 H         1 <0>         0.0899
     14 H2         -0.5289    1.8773    0.9072 H         1 <0>         0.1066
     15 H3         -1.0175   -0.3808   -0.0798 H         1 <0>         0.0792
     16 H4          0.3616   -0.2084   -2.0148 H         1 <0>         0.3155
     17 H5          1.7421   -0.1406   -1.0899 H         1 <0>         0.3448
     18 H6         -3.1427    2.8965    0.2793 H         1 <0>         0.4155
@<TRIPOS>BOND
     1    1    8 1
     2    1   13 1
     3    1   14 1
     4    1    2 1
     5    2    3 1
     6    2    6 2
     7    3    4 2
     8    3    7 1
     9    4    5 1
    10    5    6 1
    11    7   18 1
    12    8    9 1
    13    8   12 1
    14    8   15 1
    15    9   10 2
    16    9   11 1
    17   12   16 1
    18   12   17 1
@<TRIPOS>MOLECULE
CHEMBL1094129
   18    18     0     0     0
SMALL
USER_CHARGES

@<TRIPOS>ATOM
      1 C1         -0.0187    1.5258    0.0104 C.3       1 <0>        -0.0667
      2 C2         -0.7475    2.0250   -1.2105 C.2       1 <0>         0.0294
      3 C3         -2.1373    2.2794   -1.2868 C.2       1 <0>         0.3330
      4 N1         -2.4310    2.7002   -2.4852 N.2       1 <0>        -0.4366
      5 O1         -1.2246    2.7315   -3.2309 O.3       1 <0>        -0.0304
      6 N2         -0.1977    2.2944   -2.3554 N.2       1 <0>        -0.3178
      7 O2         -3.0240    2.1118   -0.2732 O.3       1 <0>        -0.6977
      8 C4          0.0021   -0.0041    0.0020 C.3       1 <0>         0.1067
      9 C5          0.6216   -0.5051    1.2812 C.2       1 <0>         0.4910
     10 O3          1.7758   -0.8622    1.2941 O.2       1 <0>        -0.5099
     11 O4         -0.1089   -0.5546    2.4062 O.3       1 <0>        -0.4987
     12 N3          0.7922   -0.4768   -1.1426 N.3       1 <0>        -0.8267
     13 H1          1.0039    1.9031    0.0027 H         1 <0>         0.0808
     14 H2         -0.5289    1.8773    0.9072 H         1 <0>         0.1058
     15 H3         -1.0175   -0.3808   -0.0798 H         1 <0>         0.1249
     16 H4          0.3739   -0.8894    3.1742 H         1 <0>         0.4041
     17 H5          0.3616   -0.2084   -2.0148 H         1 <0>         0.3595
     18 H6          1.7421   -0.1406   -1.0899 H         1 <0>         0.3493
@<TRIPOS>BOND
     1    1    8 1
     2    1   13 1
     3    1   14 1
     4    1    2 1
     5    2    3 1
     6    2    6 2
     7    3    4 2
     8    3    7 1
     9    4    5 1
    10    5    6 1
    11    8    9 1
    12    8   12 1
    13    8   15 1
    14    9   10 2
    15    9   11 1
    16   11   16 1
    17   12   17 1
    18   12   18 1
@<TRIPOS>MOLECULE
CHEMBL1094129
   18    18     0     0     0
SMALL
USER_CHARGES

@<TRIPOS>ATOM
      1 C1         -0.0187    1.5258    0.0104 C.3       1 <0>        -0.0323
      2 C2         -0.7475    2.0250   -1.2105 C.2       1 <0>         0.0936
      3 C3         -2.1373    2.2794   -1.2868 C.2       1 <0>         0.2925
      4 N1         -2.4310    2.7002   -2.4852 N.2       1 <0>        -0.3089
      5 O1         -1.2246    2.7315   -3.2309 O.3       1 <0>         0.0286
      6 N2         -0.1977    2.2944   -2.3554 N.2       1 <0>        -0.2733
      7 O2         -3.0240    2.1118   -0.2732 O.3       1 <0>        -0.4334
      8 C4          0.0021   -0.0041    0.0020 C.3       1 <0>         0.0261
      9 C5          0.8348   -0.5015    1.1553 C.2       1 <0>         0.4689
     10 O3          0.3127   -0.7178    2.2356 O.co2     1 <0>        -0.6921
     11 O4          2.0307   -0.6877    1.0081 O.co2     1 <0>        -0.6920
     12 N3         -1.3697   -0.5131    0.1331 N.3       1 <0>        -0.8285
     13 H1          1.0039    1.9031    0.0027 H         1 <0>         0.0960
     14 H2         -0.5289    1.8773    0.9072 H         1 <0>         0.0941
     15 H3          0.4324   -0.3564   -0.9354 H         1 <0>         0.0760
     16 H4         -1.3898   -1.5196    0.0656 H         1 <0>         0.3339
     17 H5         -1.7907   -0.2000    0.9949 H         1 <0>         0.3426
     18 H6         -3.1427    2.8965    0.2793 H         1 <0>         0.4083
@<TRIPOS>BOND
     1    1    8 1
     2    1   13 1
     3    1   14 1
     4    1    2 1
     5    2    3 1
     6    2    6 2
     7    3    4 2
     8    3    7 1
     9    4    5 1
    10    5    6 1
    11    7   18 1
    12    8    9 1
    13    8   12 1
    14    8   15 1
    15    9   10 2
    16    9   11 1
    17   12   16 1
    18   12   17 1
@<TRIPOS>MOLECULE
CHEMBL1094129
   18    18     0     0     0
SMALL
USER_CHARGES

@<TRIPOS>ATOM
      1 C1         -0.0187    1.5258    0.0104 C.3       1 <0>        -0.0259
      2 C2         -0.7475    2.0250   -1.2105 C.2       1 <0>         0.0489
      3 C3         -2.1373    2.2794   -1.2868 C.2       1 <0>         0.3484
      4 N1         -2.4310    2.7002   -2.4852 N.2       1 <0>        -0.4501
      5 O1         -1.2246    2.7315   -3.2309 O.3       1 <0>        -0.0396
      6 N2         -0.1977    2.2944   -2.3554 N.2       1 <0>        -0.3253
      7 O2         -3.0240    2.1118   -0.2732 O.3       1 <0>        -0.6939
      8 C4          0.0021   -0.0041    0.0020 C.3       1 <0>         0.1136
      9 C5          0.8348   -0.5015    1.1553 C.2       1 <0>         0.4426
     10 O3          0.2974   -0.8871    2.1665 O.2       1 <0>        -0.5193
     11 O4          2.1736   -0.5162    1.0593 O.3       1 <0>        -0.5054
     12 N3         -1.3697   -0.5131    0.1331 N.3       1 <0>        -0.7926
     13 H1          1.0039    1.9031    0.0027 H         1 <0>         0.0876
     14 H2         -0.5289    1.8773    0.9072 H         1 <0>         0.0955
     15 H3          0.4324   -0.3564   -0.9354 H         1 <0>         0.1155
     16 H4          2.6209   -0.8516    1.8483 H         1 <0>         0.3989
     17 H5         -1.3898   -1.5196    0.0656 H         1 <0>         0.3389
     18 H6         -1.7907   -0.2000    0.9949 H         1 <0>         0.3622
@<TRIPOS>BOND
     1    1    8 1
     2    1   13 1
     3    1   14 1
     4    1    2 1
     5    2    3 1
     6    2    6 2
     7    3    4 2
     8    3    7 1
     9    4    5 1
    10    5    6 1
    11    8    9 1
    12    8   12 1
    13    8   15 1
    14    9   10 2
    15    9   11 1
    16   11   16 1
    17   12   17 1
    18   12   18 1
@<TRIPOS>MOLECULE
CHEMBL13017
   54    57     0     0     0
SMALL
USER_CHARGES

@<TRIPOS>ATOM
      1 C1         -0.6563   -1.1008    0.3304 C.ar      1 <0>        -0.1229
      2 C2          0.4051   -0.2603    0.0513 C.ar      1 <0>        -0.1200
      3 C3          1.6980   -0.7489    0.0731 C.ar      1 <0>        -0.1053
      4 C4          1.9296   -2.0780    0.3745 C.ar      1 <0>        -0.0629
      5 C5          0.8683   -2.9183    0.6544 C.ar      1 <0>        -0.1057
      6 C6         -0.4247   -2.4300    0.6312 C.ar      1 <0>        -0.1205
      7 C7          3.3390   -2.6109    0.3973 C.3       1 <0>        -0.1061
      8 C8          3.9114   -2.4582    1.7830 C.2       1 <0>         0.5136
      9 O1          3.2409   -1.9652    2.6651 O.2       1 <0>        -0.5365
     10 N1          5.1685   -2.8696    2.0419 N.am      1 <0>        -0.7255
     11 C9          5.7250   -2.7211    3.3890 C.3       1 <0>         0.1987
     12 C10         7.1344   -3.2541    3.4118 C.2       1 <0>        -0.1846
     13 C11         7.5199   -4.5798    3.6946 C.2       1 <0>        -0.1721
     14 C12         8.8647   -4.6369    3.6106 C.2       1 <0>         0.0009
     15 N2          9.3250   -3.3930    3.2857 N.pl3     1 <0>        -0.4076
     16 C13         8.2573   -2.5511    3.1597 C.2       1 <0>         0.0142
     17 C14        10.6705   -3.0400    3.1064 C.ar      1 <0>         0.1849
     18 C15        11.4441   -3.7137    2.1749 C.ar      1 <0>        -0.1158
     19 C16        12.7769   -3.3644    1.9962 C.ar      1 <0>         0.2049
     20 C17        13.3323   -2.3339    2.7581 C.ar      1 <0>         0.1109
     21 C18        12.5483   -1.6637    3.6909 C.ar      1 <0>        -0.0568
     22 C19        11.2243   -2.0108    3.8594 C.ar      1 <0>        -0.1925
     23 C20        10.3772   -1.2769    4.8668 C.3       1 <0>         0.5180
     24 F1         11.1829   -0.4041    5.6059 F         1 <0>        -0.1756
     25 F2          9.3877   -0.5464    4.2001 F         1 <0>        -0.1715
     26 F3          9.7748   -2.1989    5.7295 F         1 <0>        -0.1669
     27 N3         14.6666   -1.9710    2.5923 N.am      1 <0>        -0.6313
     28 H1         15.0436   -1.2545    3.1266 H         1 <0>         0.4217
     29 C21        15.4354   -2.6146    1.6906 C.2       1 <0>         0.5168
     30 O2         16.5998   -2.3018    1.5429 O.2       1 <0>        -0.4707
     31 C22        14.8419   -3.7144    0.8770 C.2       1 <0>         0.5080
     32 O3         15.5180   -4.3061    0.0596 O.2       1 <0>        -0.4548
     33 N4         13.5476   -4.0460    1.0584 N.am      1 <0>        -0.4915
     34 C23        12.9513   -5.1249    0.2669 C.3       1 <0>         0.0198
     35 C24        12.3670   -4.5549   -0.9998 C.2       1 <0>         0.4873
     36 O4         12.4418   -3.3582   -1.2210 O.co2     1 <0>        -0.6765
     37 O5         11.8195   -5.2903   -1.8035 O.co2     1 <0>        -0.6813
     38 H2         -1.6661   -0.7180    0.3177 H         1 <0>         0.1192
     39 H3          0.2242    0.7781   -0.1841 H         1 <0>         0.1205
     40 H4          2.5272   -0.0924   -0.1456 H         1 <0>         0.1200
     41 H5          1.0492   -3.9568    0.8895 H         1 <0>         0.1195
     42 H6         -1.2539   -3.0866    0.8496 H         1 <0>         0.1203
     43 H7          3.3334   -3.6652    0.1207 H         1 <0>         0.1038
     44 H8          3.9502   -2.0525   -0.3118 H         1 <0>         0.1044
     45 H9          5.7048   -3.2639    1.3364 H         1 <0>         0.4042
     46 H10         5.7306   -1.6668    3.6656 H         1 <0>         0.0698
     47 H11         5.1138   -3.2795    4.0981 H         1 <0>         0.0732
     48 H12         6.8594   -5.3998    3.9349 H         1 <0>         0.1419
     49 H13         9.4727   -5.5147    3.7726 H         1 <0>         0.1671
     50 H14         8.3043   -1.5026    2.9048 H         1 <0>         0.1759
     51 H15        11.0112   -4.5104    1.5882 H         1 <0>         0.1602
     52 H16        12.9760   -0.8670    4.2816 H         1 <0>         0.1591
     53 H17        13.7180   -5.8578    0.0157 H         1 <0>         0.1028
     54 H18        12.1634   -5.6072    0.8455 H         1 <0>         0.0930
@<TRIPOS>BOND
     1    1    6 ar
     2    1    2 ar
     3    1   38 1
     4    2    3 ar
     5    2   39 1
     6    3    4 ar
     7    3   40 1
     8    4    5 ar
     9    4    7 1
    10    5    6 ar
    11    5   41 1
    12    6   42 1
    13    7    8 1
    14    7   43 1
    15    7   44 1
    16    8    9 2
    17    8   10 am
    18   10   11 1
    19   10   45 1
    20   11   12 1
    21   11   46 1
    22   11   47 1
    23   12   16 2
    24   12   13 1
    25   13   14 2
    26   13   48 1
    27   14   15 1
    28   14   49 1
    29   15   16 1
    30   15   17 1
    31   16   50 1
    32   17   22 ar
    33   17   18 ar
    34   18   19 ar
    35   18   51 1
    36   19   33 1
    37   19   20 ar
    38   20   21 ar
    39   20   27 1
    40   21   22 ar
    41   21   52 1
    42   22   23 1
    43   23   24 1
    44   23   25 1
    45   23   26 1
    46   27   28 1
    47   27   29 am
    48   29   30 2
    49   29   31 1
    50   31   32 2
    51   31   33 am
    52   33   34 1
    53   34   35 1
    54   34   53 1
    55   34   54 1
    56   35   36 2
    57   35   37 1
@<TRIPOS>MOLECULE
CHEMBL427734
   28    31     0     0     0
SMALL
USER_CHARGES

@<TRIPOS>ATOM
      1 C1         -0.0167    1.3796    0.0096 C.ar      1 <0>        -0.0261
      2 C2          1.1837    2.0831    0.0019 C.ar      1 <0>        -0.1114
      3 C3          2.4133    1.3863   -0.0135 C.ar      1 <0>         0.2324
      4 C4          2.4104   -0.0101   -0.0210 C.ar      1 <0>        -0.1313
      5 C5          1.2146   -0.6929   -0.0133 C.ar      1 <0>         0.0106
      6 C6          0.0021   -0.0041    0.0020 C.ar      1 <0>         0.0178
      7 N1         -1.2059   -0.7182    0.0097 N.pl3     1 <0>        -0.4037
      8 C7         -2.2633   -0.5356    0.8495 C.2       1 <0>         0.1584
      9 N2         -3.1772   -1.4055    0.5146 N.2       1 <0>        -0.3063
     10 N3         -2.7635   -2.1160   -0.4735 N.2       1 <0>        -0.3087
     11 C8         -1.5659   -1.7333   -0.8249 C.2       1 <0>         0.1637
     12 Cl1         1.2165   -2.4289   -0.0226 Cl        1 <0>        -0.0759
     13 N4          3.5720    2.0923   -0.0213 N.2       1 <0>        -0.6099
     14 C9          3.5958    3.3938   -0.0149 C.2       1 <0>         0.6297
     15 O1          4.7955    4.0158   -0.0235 O.3       1 <0>        -0.6287
     16 N5          2.4575    4.1657   -0.0004 N.pl3     1 <0>        -0.2809
     17 C10         1.2281    3.5500    0.0089 C.2       1 <0>         0.0191
     18 C11         0.2768    4.5401    0.0224 C.2       1 <0>        -0.1803
     19 C12         1.0036    5.7492    0.0210 C.2       1 <0>        -0.0009
     20 N6          2.2878    5.4418    0.0072 N.2       1 <0>        -0.2350
     21 C13         0.4329    7.1095    0.0323 C.2       1 <0>         0.5668
     22 O2         -0.7803    7.2636    0.0441 O.co2     1 <0>        -0.6872
     23 O3          1.1729    8.0832    0.0297 O.co2     1 <0>        -0.6739
     24 H1         -0.9573    1.9101    0.0260 H         1 <0>         0.1362
     25 H2          3.3438   -0.5532   -0.0332 H         1 <0>         0.1438
     26 H3         -2.3322    0.1926    1.6441 H         1 <0>         0.2169
     27 H4         -0.9705   -2.1461   -1.6258 H         1 <0>         0.2111
     28 H5         -0.7964    4.4193    0.0318 H         1 <0>         0.1536
@<TRIPOS>BOND
     1    1    6 ar
     2    1    2 ar
     3    1   24 1
     4    2   17 1
     5    2    3 ar
     6    3    4 ar
     7    3   13 1
     8    4    5 ar
     9    4   25 1
    10    5    6 ar
    11    5   12 1
    12    6    7 1
    13    7   11 1
    14    7    8 1
    15    8    9 2
    16    8   26 1
    17    9   10 1
    18   10   11 2
    19   11   27 1
    20   13   14 2
    21   14   15 1
    22   14   16 1
    23   16   20 1
    24   16   17 1
    25   17   18 2
    26   18   19 1
    27   18   28 1
    28   19   20 2
    29   19   21 1
    30   21   22 2
    31   21   23 1
@<TRIPOS>MOLECULE
CHEMBL25922
   22    23     0     0     0
SMALL
USER_CHARGES

@<TRIPOS>ATOM
      1 C1         -0.0173    1.4248    0.0099 C.3       1 <0>         0.0380
      2 O1          0.0021   -0.0041    0.0020 O.3       1 <0>        -0.2797
      3 C2          0.6043   -0.6056   -1.0531 C.ar      1 <0>         0.3552
      4 C3          0.6467   -1.9979   -1.1140 C.ar      1 <0>        -0.1096
      5 C4          1.2529   -2.6098   -2.1761 C.ar      1 <0>        -0.0028
      6 C5          1.8183   -1.8039   -3.1802 C.ar      1 <0>         0.1060
      7 C6          1.7398   -0.4050   -3.0558 C.ar      1 <0>         0.3288
      8 N1          1.1352    0.1382   -2.0068 N.ar      1 <0>        -0.5377
      9 N2          2.2882    0.4025   -4.0301 N.am      1 <0>        -0.6157
     10 C7          2.8947   -0.1684   -5.0931 C.2       1 <0>         0.4855
     11 C8          2.9544   -1.6362   -5.1837 C.2       1 <0>         0.4163
     12 N3          2.4233   -2.3709   -4.2415 N.2       1 <0>        -0.5900
     13 O2          3.5589   -2.2260   -6.2439 O.3       1 <0>        -0.6136
     14 O3          3.3860    0.5231   -5.9665 O.2       1 <0>        -0.5012
     15 N4          0.0394   -2.8090   -0.0350 N.pl3     1 <0>         0.0537
     16 O4          0.0781   -4.0161   -0.0913 O.2       1 <0>        -0.1835
     17 O5         -0.4954   -2.2645    0.9026 O.3       1 <0>        -0.1481
     18 H1          1.0053    1.8021    0.0021 H         1 <0>         0.0585
     19 H2         -0.5445    1.7859   -0.8732 H         1 <0>         0.0585
     20 H3         -0.5275    1.7763    0.9067 H         1 <0>         0.0993
     21 H4          1.2968   -3.6869   -2.2420 H         1 <0>         0.1739
     22 H5          2.2387    1.3681   -3.9530 H         1 <0>         0.4080
@<TRIPOS>BOND
     1    1    2 1
     2    1   18 1
     3    1   19 1
     4    1   20 1
     5    2    3 1
     6    3    8 ar
     7    3    4 ar
     8    4    5 ar
     9    4   15 1
    10    5    6 ar
    11    5   21 1
    12    6   12 1
    13    6    7 ar
    14    7    8 ar
    15    7    9 1
    16    9   10 am
    17    9   22 1
    18   10   11 1
    19   10   14 2
    20   11   12 2
    21   11   13 1
    22   15   16 2
    23   15   17 1
@<TRIPOS>MOLECULE
CHEMBL25922
   22    23     0     0     0
SMALL
USER_CHARGES

@<TRIPOS>ATOM
      1 C1         -0.0173    1.4248    0.0099 C.3       1 <0>         0.0353
      2 O1          0.0021   -0.0041    0.0020 O.3       1 <0>        -0.2806
      3 C2         -1.1982   -0.6364    0.0101 C.ar      1 <0>         0.4094
      4 C3         -1.2375   -2.0310    0.0088 C.ar      1 <0>        -0.1728
      5 C4         -2.4583   -2.6744    0.0174 C.ar      1 <0>        -0.0030
      6 C5         -3.6184   -1.8981    0.0273 C.ar      1 <0>        -0.0209
      7 C6         -3.5106   -0.4980    0.0281 C.ar      1 <0>         0.4459
      8 N1         -2.3048    0.0776    0.0245 N.ar      1 <0>        -0.5281
      9 N2         -4.6186    0.2722    0.0380 N.2       1 <0>        -0.5892
     10 C7         -5.8116   -0.2609    0.0466 C.2       1 <0>         0.4454
     11 C8         -5.9671   -1.7272    0.0461 C.2       1 <0>         0.4779
     12 N3         -4.8607   -2.5031    0.0366 N.am      1 <0>        -0.6258
     13 O2         -7.0752   -2.2312    0.0545 O.2       1 <0>        -0.5062
     14 O3         -6.9072    0.5347    0.0565 O.3       1 <0>        -0.5811
     15 N4          0.0190   -2.8134   -0.0023 N.pl3     1 <0>         0.0666
     16 O4         -0.0213   -4.0217   -0.0034 O.2       1 <0>        -0.2078
     17 O5          1.0856   -2.2442   -0.0103 O.3       1 <0>        -0.1585
     18 H1          1.0053    1.8021    0.0021 H         1 <0>         0.0987
     19 H2         -0.5445    1.7859   -0.8732 H         1 <0>         0.0637
     20 H3         -0.5275    1.7763    0.9067 H         1 <0>         0.0637
     21 H4         -2.5148   -3.7529    0.0162 H         1 <0>         0.1605
     22 H5         -4.9375   -3.4700    0.0359 H         1 <0>         0.4071
@<TRIPOS>BOND
     1    1    2 1
     2    1   18 1
     3    1   19 1
     4    1   20 1
     5    2    3 1
     6    3    8 ar
     7    3    4 ar
     8    4    5 ar
     9    4   15 1
    10    5    6 ar
    11    5   21 1
    12    6   12 1
    13    6    7 ar
    14    7    8 ar
    15    7    9 1
    16    9   10 2
    17   10   11 1
    18   10   14 1
    19   11   12 am
    20   11   13 2
    21   12   22 1
    22   15   16 2
    23   15   17 1
@<TRIPOS>MOLECULE
CHEMBL423498
   41    43     0     0     0
SMALL
USER_CHARGES

@<TRIPOS>ATOM
      1 C1         -0.0157    1.3041    0.0092 C.2       1 <0>         0.1105
      2 N1          1.2564    1.7386   -0.0006 N.2       1 <0>        -0.4090
      3 N2          2.0661    0.5911   -0.0145 N.2       1 <0>        -0.3116
      4 C2          1.2614   -0.4389   -0.0123 C.2       1 <0>        -0.4021
      5 N3          0.0021   -0.0041    0.0020 N.2       1 <0>        -0.5496
      6 S1          1.7611   -2.1285   -0.0273 S.o2      1 <0>         2.5547
      7 O1          0.6741   -2.8228   -0.6238 O.2       1 <0>        -0.9408
      8 O2          3.0419   -2.1224   -0.6427 O.2       1 <0>        -0.9414
      9 C3          1.9104   -2.5860    1.7217 C.3       1 <0>        -0.6098
     10 C4          2.3441   -4.0492    1.8308 C.3       1 <0>        -0.0747
     11 H1          1.6476   -4.6773    1.2754 H         1 <0>         0.0914
     12 C5          3.7506   -4.2094    1.2498 C.3       1 <0>        -0.1568
     13 C6          4.1782   -5.6745    1.3544 C.3       1 <0>        -0.1077
     14 C7          4.1792   -6.1063    2.8201 C.3       1 <0>        -0.1013
     15 H2          4.4763   -7.1528    2.8886 H         1 <0>         0.0920
     16 C8          5.1636   -5.2466    3.6143 C.3       1 <0>        -0.0154
     17 N4          5.1735   -5.6804    5.0169 N.4       1 <0>        -0.4786
     18 C9          3.8489   -5.4741    5.6139 C.3       1 <0>        -0.0533
     19 H3          3.5693   -4.4246    5.5219 H         1 <0>         0.1316
     20 C10         2.8157   -6.3414    4.8911 C.3       1 <0>        -0.1133
     21 C11         2.7782   -5.9362    3.4133 C.3       1 <0>        -0.0977
     22 H4          2.0745   -6.5761    2.8809 H         1 <0>         0.0993
     23 C12         2.3503   -4.4711    3.3010 C.3       1 <0>        -0.1102
     24 C13         3.8908   -5.8559    7.0711 C.2       1 <0>         0.4921
     25 O3          4.9287   -6.2620    7.5653 O.co2     1 <0>        -0.6796
     26 O4          2.8868   -5.7585    7.7559 O.co2     1 <0>        -0.6380
     27 H5         -0.8983    1.9263    0.0250 H         1 <0>         0.1752
     28 H6          2.6542   -1.9499    2.2014 H         1 <0>         0.1324
     29 H7          0.9474   -2.4547    2.2151 H         1 <0>         0.1369
     30 H8          3.7486   -3.9050    0.2031 H         1 <0>         0.0975
     31 H9          4.4483   -3.5860    1.8089 H         1 <0>         0.0750
     32 H10         3.4811   -6.2969    0.7934 H         1 <0>         0.0830
     33 H11         5.1803   -5.7904    0.9415 H         1 <0>         0.0776
     34 H12         6.1631   -5.3560    3.1933 H         1 <0>         0.1256
     35 H13         4.8592   -4.2014    3.5596 H         1 <0>         0.1291
     36 H14         5.4130   -6.6595    5.0631 H         1 <0>         0.4210
     37 H15         3.0949   -7.3912    4.9800 H         1 <0>         0.0801
     38 H16         1.8332   -6.1853    5.3367 H         1 <0>         0.1108
     39 H17         3.0499   -3.8454    3.8551 H         1 <0>         0.0658
     40 H18         1.3498   -4.3521    3.7169 H         1 <0>         0.0823
     41 H19         5.8587   -5.1448    5.5285 H         1 <0>         0.4270
@<TRIPOS>BOND
     1    1    5 2
     2    1    2 1
     3    1   27 1
     4    2    3 1
     5    3    4 2
     6    4    5 1
     7    4    6 1
     8    6    7 2
     9    6    8 2
    10    6    9 1
    11    9   10 1
    12    9   28 1
    13    9   29 1
    14   10   11 1
    15   10   23 1
    16   10   12 1
    17   12   13 1
    18   12   30 1
    19   12   31 1
    20   13   14 1
    21   13   32 1
    22   13   33 1
    23   14   15 1
    24   14   21 1
    25   14   16 1
    26   16   17 1
    27   16   34 1
    28   16   35 1
    29   17   18 1
    30   17   36 1
    31   17   41 1
    32   18   19 1
    33   18   20 1
    34   18   24 1
    35   20   21 1
    36   20   37 1
    37   20   38 1
    38   21   22 1
    39   21   23 1
    40   23   39 1
    41   23   40 1
    42   24   25 2
    43   24   26 1
@<TRIPOS>MOLECULE
CHEMBL423498
   42    44     0     0     0
SMALL
USER_CHARGES

@<TRIPOS>ATOM
      1 C1         -0.0160    1.3282    0.0093 C.2       1 <0>         0.1989
      2 N1         -1.2579    1.7358    0.0177 N.2       1 <0>        -0.2700
      3 H1         -3.0322    0.5533    0.0195 H         1 <0>         0.4535
      4 N2         -2.0627    0.5848    0.0154 N.pl3     1 <0>        -0.4166
      5 C2         -1.2225   -0.4646    0.0056 C.2       1 <0>        -0.2527
      6 N3          0.0021   -0.0041    0.0020 N.2       1 <0>        -0.4456
      7 S1         -1.6891   -2.1636   -0.0009 S.o2      1 <0>         2.5144
      8 O1         -0.5914   -2.8433    0.5928 O.2       1 <0>        -0.8859
      9 O2         -2.9725   -2.1895    0.6086 O.2       1 <0>        -0.9138
     10 C3         -1.8217   -2.6041   -1.7556 C.3       1 <0>        -0.5937
     11 C4         -2.2261   -4.0741   -1.8833 C.3       1 <0>        -0.0784
     12 H2         -1.5199   -4.6947   -1.3317 H         1 <0>         0.1003
     13 C5         -3.6318   -4.2682   -1.3106 C.3       1 <0>        -0.1579
     14 C6         -4.0302   -5.7402   -1.4338 C.3       1 <0>        -0.1089
     15 C7         -4.0163   -6.1551   -2.9043 C.3       1 <0>        -0.1045
     16 H3         -4.2925   -7.2064   -2.9859 H         1 <0>         0.0972
     17 C8         -5.0138   -5.3058   -3.6932 C.3       1 <0>        -0.0136
     18 N4         -5.0090   -5.7238   -5.1007 N.4       1 <0>        -0.4802
     19 C9         -3.6860   -5.4849   -5.6891 C.3       1 <0>        -0.0527
     20 H4         -3.4274   -4.4313   -5.5840 H         1 <0>         0.1290
     21 C10        -2.6392   -6.3400   -4.9714 C.3       1 <0>        -0.1154
     22 C11        -2.6163   -5.9511   -3.4889 C.3       1 <0>        -0.0974
     23 H5         -1.9025   -6.5831   -2.9605 H         1 <0>         0.1019
     24 C12        -2.2176   -4.4792   -3.3581 C.3       1 <0>        -0.1101
     25 C13        -3.7140   -5.8508   -7.1507 C.2       1 <0>         0.4897
     26 O3         -4.7416   -6.2715   -7.6543 O.co2     1 <0>        -0.6749
     27 O4         -2.7090   -5.7261   -7.8297 O.co2     1 <0>        -0.6357
     28 H6          0.8543    1.9677    0.0045 H         1 <0>         0.2358
     29 H7         -2.5756   -1.9771   -2.2316 H         1 <0>         0.1409
     30 H8         -0.8592   -2.4484   -2.2430 H         1 <0>         0.1526
     31 H9         -3.6404   -3.9758   -0.2606 H         1 <0>         0.0929
     32 H10        -4.3391   -3.6523   -1.8659 H         1 <0>         0.0775
     33 H11        -3.3235   -6.3552   -0.8766 H         1 <0>         0.0860
     34 H12        -5.0316   -5.8802   -1.0268 H         1 <0>         0.0816
     35 H13        -6.0127   -5.4395   -3.2781 H         1 <0>         0.1264
     36 H14        -4.7301   -4.2556   -3.6253 H         1 <0>         0.1247
     37 H15        -5.2291   -6.7068   -5.1590 H         1 <0>         0.4241
     38 H16        -2.8975   -7.3941   -5.0734 H         1 <0>         0.0839
     39 H17        -1.6580   -6.1598   -5.4106 H         1 <0>         0.1127
     40 H18        -2.9269   -3.8610   -3.9084 H         1 <0>         0.0687
     41 H19        -1.2178   -4.3361   -3.7680 H         1 <0>         0.0867
     42 H20        -5.7022   -5.1959   -5.6094 H         1 <0>         0.4286
@<TRIPOS>BOND
     1    1    6 1
     2    1   28 1
     3    1    2 2
     4    2    4 1
     5    3    4 1
     6    4    5 1
     7    5    7 1
     8    5    6 2
     9    7    8 2
    10    7    9 2
    11    7   10 1
    12   10   11 1
    13   10   29 1
    14   10   30 1
    15   11   12 1
    16   11   24 1
    17   11   13 1
    18   13   14 1
    19   13   31 1
    20   13   32 1
    21   14   15 1
    22   14   33 1
    23   14   34 1
    24   15   16 1
    25   15   22 1
    26   15   17 1
    27   17   18 1
    28   17   35 1
    29   17   36 1
    30   18   19 1
    31   18   37 1
    32   18   42 1
    33   19   20 1
    34   19   21 1
    35   19   25 1
    36   21   22 1
    37   21   38 1
    38   21   39 1
    39   22   23 1
    40   22   24 1
    41   24   40 1
    42   24   41 1
    43   25   26 2
    44   25   27 1
@<TRIPOS>MOLECULE
CHEMBL423498
   42    44     0     0     0
SMALL
USER_CHARGES

@<TRIPOS>ATOM
      1 C1         -0.0157    1.3041    0.0092 C.2       1 <0>         0.2668
      2 N1          1.2564    1.7386   -0.0006 N.pl3     1 <0>        -0.4628
      3 H1          1.5557    2.6613    0.0020 H         1 <0>         0.4517
      4 N2          2.0661    0.5911   -0.0145 N.2       1 <0>        -0.2118
      5 C2          1.2614   -0.4389   -0.0123 C.2       1 <0>        -0.2988
      6 N3          0.0021   -0.0041    0.0020 N.2       1 <0>        -0.4749
      7 S1          1.7611   -2.1285   -0.0273 S.o2      1 <0>         2.5293
      8 O1          0.6739   -2.8229   -0.6232 O.2       1 <0>        -0.8992
      9 O2          3.0417   -2.1225   -0.6432 O.2       1 <0>        -0.9083
     10 C3          1.9111   -2.5858    1.7217 C.3       1 <0>        -0.5963
     11 C4          2.3449   -4.0490    1.8308 C.3       1 <0>        -0.0775
     12 H2          1.6481   -4.6771    1.2757 H         1 <0>         0.0984
     13 C5          3.7511   -4.2092    1.2492 C.3       1 <0>        -0.1575
     14 C6          4.1788   -5.6744    1.3539 C.3       1 <0>        -0.1088
     15 C7          4.1804   -6.1059    2.8196 C.3       1 <0>        -0.1040
     16 H3          4.4775   -7.1524    2.8881 H         1 <0>         0.0964
     17 C8          5.1651   -5.2461    3.6133 C.3       1 <0>        -0.0141
     18 N4          5.1756   -5.6798    5.0159 N.4       1 <0>        -0.4800
     19 C9          3.8512   -5.4734    5.6134 C.3       1 <0>        -0.0527
     20 H4          3.5716   -4.4239    5.5214 H         1 <0>         0.1292
     21 C10         2.8177   -6.3407    4.8912 C.3       1 <0>        -0.1151
     22 C11         2.7797   -5.9358    3.4133 C.3       1 <0>        -0.0974
     23 H5          2.0757   -6.5757    2.8813 H         1 <0>         0.1014
     24 C12         2.3517   -4.4707    3.3010 C.3       1 <0>        -0.1099
     25 C13         3.8937   -5.8550    7.0707 C.2       1 <0>         0.4900
     26 O3          4.9319   -6.2611    7.5645 O.co2     1 <0>        -0.6753
     27 O4          2.8900   -5.7576    7.7559 O.co2     1 <0>        -0.6364
     28 H6         -0.8983    1.9263    0.0250 H         1 <0>         0.2392
     29 H7          2.6551   -1.9496    2.2010 H         1 <0>         0.1402
     30 H8          0.9483   -2.4545    2.2154 H         1 <0>         0.1474
     31 H9          3.7487   -3.9049    0.2025 H         1 <0>         0.0937
     32 H10         4.4491   -3.5858    1.8080 H         1 <0>         0.0774
     33 H11         3.4814   -6.2968    0.7932 H         1 <0>         0.0854
     34 H12         5.1807   -5.7902    0.9405 H         1 <0>         0.0811
     35 H13         6.1644   -5.3556    3.1918 H         1 <0>         0.1264
     36 H14         4.8606   -4.2009    3.5586 H         1 <0>         0.1255
     37 H15         5.4151   -6.6589    5.0621 H         1 <0>         0.4237
     38 H16         3.0970   -7.3906    4.9801 H         1 <0>         0.0834
     39 H17         1.8354   -6.1847    5.3371 H         1 <0>         0.1122
     40 H18         3.0515   -3.8449    3.8548 H         1 <0>         0.0681
     41 H19         1.3513   -4.3517    3.7173 H         1 <0>         0.0853
     42 H20         5.8610   -5.1441    5.5272 H         1 <0>         0.4284
@<TRIPOS>BOND
     1    1    6 2
     2    1    2 1
     3    1   28 1
     4    2    3 1
     5    2    4 1
     6    4    5 2
     7    5    6 1
     8    5    7 1
     9    7    8 2
    10    7    9 2
    11    7   10 1
    12   10   11 1
    13   10   29 1
    14   10   30 1
    15   11   12 1
    16   11   24 1
    17   11   13 1
    18   13   14 1
    19   13   31 1
    20   13   32 1
    21   14   15 1
    22   14   33 1
    23   14   34 1
    24   15   16 1
    25   15   22 1
    26   15   17 1
    27   17   18 1
    28   17   35 1
    29   17   36 1
    30   18   19 1
    31   18   37 1
    32   18   42 1
    33   19   20 1
    34   19   21 1
    35   19   25 1
    36   21   22 1
    37   21   38 1
    38   21   39 1
    39   22   23 1
    40   22   24 1
    41   24   40 1
    42   24   41 1
    43   25   26 2
    44   25   27 1
@<TRIPOS>MOLECULE
CHEMBL293613
   35    37     0     0     0
SMALL
USER_CHARGES

@<TRIPOS>ATOM
      1 C1          0.0173    1.0885    0.7825 C.2       1 <0>        -0.1431
      2 C2          1.3181    1.2296    1.0885 C.2       1 <0>        -0.0035
      3 N1          2.0748    0.8173    0.0276 N.pl3     1 <0>        -0.4191
      4 C3          1.2827    0.4035   -0.9802 C.2       1 <0>         0.0152
      5 C4         -0.0314    0.5439   -0.5805 C.2       1 <0>        -0.1904
      6 C5         -1.2319    0.2149   -1.3585 C.2       1 <0>         0.5496
      7 O1         -2.3422    0.3914   -0.8745 O.co2     1 <0>        -0.6974
      8 O2         -1.1226   -0.2358   -2.4912 O.co2     1 <0>        -0.7023
      9 C6          3.4764    0.8247   -0.0070 C.ar      1 <0>         0.2282
     10 C7          4.1403    1.5412   -0.9900 C.ar      1 <0>        -0.1256
     11 C8          5.5292    1.5494   -1.0248 C.ar      1 <0>         0.2231
     12 C9          6.2515    0.8337   -0.0672 C.ar      1 <0>         0.0974
     13 C10         5.5766    0.1172    0.9153 C.ar      1 <0>        -0.0417
     14 C11         4.1980    0.1178    0.9484 C.ar      1 <0>        -0.0673
     15 N2          3.4845   -0.6410    2.0002 N.pl3     1 <0>         0.0390
     16 O3          4.1055   -1.1558    2.9008 O.2       1 <0>        -0.1882
     17 O4          2.2808   -0.7461    1.9586 O.3       1 <0>        -0.1155
     18 N3          7.6439    0.8306   -0.0874 N.am      1 <0>        -0.6275
     19 H1          8.1369    0.3301    0.5814 H         1 <0>         0.4214
     20 C12         8.3080    1.5220   -1.0357 C.2       1 <0>         0.5187
     21 O5          9.5225    1.5218   -1.0575 O.2       1 <0>        -0.4767
     22 C13         7.5365    2.2864   -2.0576 C.2       1 <0>         0.5088
     23 O6          8.1163    2.9157   -2.9196 O.2       1 <0>        -0.4567
     24 N4          6.1889    2.2715   -2.0154 N.am      1 <0>        -0.4876
     25 C14         5.4177    3.0170   -3.0133 C.3       1 <0>         0.0159
     26 C15         5.1676    4.4161   -2.5123 C.2       1 <0>         0.4893
     27 O7          5.5940    4.7588   -1.4227 O.co2     1 <0>        -0.6797
     28 O8          4.5388    5.2054   -3.1966 O.co2     1 <0>        -0.6787
     29 H2         -0.8255    1.3245    1.4153 H         1 <0>         0.1415
     30 H3          1.7041    1.6086    2.0233 H         1 <0>         0.1462
     31 H4          1.6175    0.0277   -1.9358 H         1 <0>         0.1651
     32 H5          3.5783    2.0927   -1.7291 H         1 <0>         0.1703
     33 H6          6.1333   -0.4374    1.6563 H         1 <0>         0.1676
     34 H7          5.9779    3.0602   -3.9473 H         1 <0>         0.1042
     35 H8          4.4646    2.5164   -3.1840 H         1 <0>         0.0992
@<TRIPOS>BOND
     1    1    5 1
     2    1    2 2
     3    1   29 1
     4    2    3 1
     5    2   30 1
     6    3    4 1
     7    3    9 1
     8    4    5 2
     9    4   31 1
    10    5    6 1
    11    6    7 2
    12    6    8 1
    13    9   14 ar
    14    9   10 ar
    15   10   11 ar
    16   10   32 1
    17   11   24 1
    18   11   12 ar
    19   12   13 ar
    20   12   18 1
    21   13   14 ar
    22   13   33 1
    23   14   15 1
    24   15   16 2
    25   15   17 1
    26   18   19 1
    27   18   20 am
    28   20   21 2
    29   20   22 1
    30   22   23 2
    31   22   24 am
    32   24   25 1
    33   25   26 1
    34   25   34 1
    35   25   35 1
    36   26   27 2
    37   26   28 1
@<TRIPOS>MOLECULE
CHEMBL293613
   34    36     0     0     0
SMALL
USER_CHARGES

@<TRIPOS>ATOM
      1 C1          0.0178    1.0929    0.7849 C.2       1 <0>        -0.1615
      2 C2          1.3186    1.2335    1.0905 C.2       1 <0>         0.0048
      3 N1          2.0749    0.8198    0.0294 N.pl3     1 <0>        -0.4006
      4 C3          1.2816    0.4057   -0.9781 C.2       1 <0>         0.0244
      5 C4         -0.0318    0.5472   -0.5777 C.2       1 <0>        -0.2118
      6 C5         -1.2330    0.2192   -1.3553 C.2       1 <0>         0.5542
      7 O1         -2.3429    0.3976   -0.8712 O.co2     1 <0>        -0.7081
      8 O2         -1.1246   -0.2326   -2.4876 O.co2     1 <0>        -0.7092
      9 C6          3.4742    0.8261   -0.0057 C.ar      1 <0>         0.1520
     10 C7          4.1356    1.5431   -0.9887 C.ar      1 <0>        -0.1208
     11 C8          5.5245    1.5488   -1.0229 C.ar      1 <0>         0.1458
     12 C9          6.2495    0.8255   -0.0578 C.ar      1 <0>         0.1556
     13 C10         5.5585    0.1061    0.9290 C.ar      1 <0>        -0.0554
     14 C11         4.1953    0.1150    0.9526 C.ar      1 <0>        -0.0585
     15 N2          3.4746   -0.6415    2.0012 N.pl3     1 <0>         0.0461
     16 O3          4.0899   -1.1584    2.9045 O.2       1 <0>        -0.2055
     17 O4          2.2708   -0.7424    1.9543 O.3       1 <0>        -0.1427
     18 N3          7.5978    0.8196   -0.0746 N.2       1 <0>        -0.6050
     19 C12         8.2633    1.4818   -0.9835 C.2       1 <0>         0.4237
     20 O5          9.6183    1.4599   -0.9796 O.3       1 <0>        -0.6470
     21 C13         7.5438    2.2514   -2.0122 C.2       1 <0>         0.4792
     22 O6          8.1583    2.8704   -2.8616 O.2       1 <0>        -0.5199
     23 N4          6.1930    2.2624   -2.0006 N.am      1 <0>        -0.4845
     24 C14         5.4472    3.0182   -3.0101 C.3       1 <0>         0.0225
     25 C15         5.2067    4.4200   -2.5119 C.2       1 <0>         0.4911
     26 O7          5.6199    4.7565   -1.4153 O.co2     1 <0>        -0.6772
     27 O8          4.5989    5.2175   -3.2054 O.co2     1 <0>        -0.7002
     28 H1         -0.8246    1.3299    1.4179 H         1 <0>         0.1327
     29 H2          1.7050    1.6131    2.0249 H         1 <0>         0.1396
     30 H3          1.6156    0.0286   -1.9334 H         1 <0>         0.1583
     31 H4          3.5734    2.0959   -1.7268 H         1 <0>         0.1469
     32 H5          6.1072   -0.4517    1.6734 H         1 <0>         0.1546
     33 H6          6.0228    3.0550   -3.9350 H         1 <0>         0.0908
     34 H7          4.4908    2.5297   -3.1965 H         1 <0>         0.0854
@<TRIPOS>BOND
     1    1    5 1
     2    1    2 2
     3    1   28 1
     4    2    3 1
     5    2   29 1
     6    3    4 1
     7    3    9 1
     8    4    5 2
     9    4   30 1
    10    5    6 1
    11    6    7 2
    12    6    8 1
    13    9   14 ar
    14    9   10 ar
    15   10   11 ar
    16   10   31 1
    17   11   23 1
    18   11   12 ar
    19   12   13 ar
    20   12   18 1
    21   13   14 ar
    22   13   32 1
    23   14   15 1
    24   15   16 2
    25   15   17 1
    26   18   19 2
    27   19   20 1
    28   19   21 1
    29   21   22 2
    30   21   23 am
    31   23   24 1
    32   24   25 1
    33   24   33 1
    34   24   34 1
    35   25   26 2
    36   25   27 1
@<TRIPOS>MOLECULE
CHEMBL279956
   21    21     0     0     0
SMALL
USER_CHARGES

@<TRIPOS>ATOM
      1 C1         -0.0187    1.5258    0.0104 C.3       1 <0>         0.0917
      2 C2          0.0021   -0.0041    0.0020 C.3       1 <0>         0.0767
      3 H1          0.4501   -0.3665    0.9272 H         1 <0>         0.1461
      4 C3         -1.4075   -0.5249   -0.1112 C.2       1 <0>         0.4859
      5 O1         -1.8299   -0.8975   -1.1801 O.2       1 <0>        -0.4722
      6 O2         -2.1938   -0.5750    0.9756 O.3       1 <0>        -0.4978
      7 N1          0.7922   -0.4768   -1.1426 N.3       1 <0>        -0.8134
      8 N2          1.3557    2.0329    0.0000 N.pl3     1 <0>        -0.3551
      9 C4          2.1974    2.0610   -1.0502 C.cat     1 <0>         0.6690
     10 N3          3.3406    2.5899   -0.6626 N.am      1 <0>        -0.6154
     11 C5          3.2828    2.9177    0.6282 C.2       1 <0>         0.6302
     12 O3          4.1822    3.4265    1.2753 O.2       1 <0>        -0.3598
     13 O4          2.0627    2.5981    1.0944 O.3       1 <0>        -0.0267
     14 O5          1.9169    1.6204   -2.2941 O.3       1 <0>        -0.3761
     15 H2         -0.5459    1.8868   -0.8726 H         1 <0>         0.1538
     16 H3         -0.5289    1.8773    0.9072 H         1 <0>         0.1664
     17 H4         -3.0795   -0.9232    0.8045 H         1 <0>         0.4289
     18 H5          0.3968   -0.1538   -2.0130 H         1 <0>         0.3707
     19 H6          1.7572   -0.1947   -1.0571 H         1 <0>         0.3408
     20 H7          2.6463    1.7214   -2.9209 H         1 <0>         0.4731
     21 H8          4.1132    2.7213   -1.2343 H         1 <0>         0.4833
@<TRIPOS>BOND
     1    1    2 1
     2    1    8 1
     3    1   15 1
     4    1   16 1
     5    2    3 1
     6    2    4 1
     7    2    7 1
     8    4    5 2
     9    4    6 1
    10    6   17 1
    11    7   18 1
    12    7   19 1
    13    8   13 1
    14    8    9 1
    15    9   10 2
    16    9   14 1
    17   10   11 am
    18   10   21 1
    19   11   12 2
    20   11   13 1
    21   14   20 1
@<TRIPOS>MOLECULE
CHEMBL279956
   19    19     0     0     0
SMALL
USER_CHARGES

@<TRIPOS>ATOM
      1 C1         -0.0187    1.5258    0.0104 C.3       1 <0>         0.1811
      2 C2          0.0021   -0.0041    0.0020 C.3       1 <0>         0.0805
      3 H1          0.4501   -0.3665    0.9272 H         1 <0>         0.1171
      4 C3         -1.4075   -0.5249   -0.1112 C.2       1 <0>         0.4425
      5 O1         -1.8299   -0.8975   -1.1801 O.2       1 <0>        -0.5156
      6 O2         -2.1938   -0.5750    0.9756 O.3       1 <0>        -0.5069
      7 N1          0.7922   -0.4768   -1.1426 N.3       1 <0>        -0.7852
      8 N2          1.3557    2.0329    0.0000 N.pl3     1 <0>        -0.4862
      9 C4          2.1974    2.0610   -1.0502 C.2       1 <0>         0.6305
     10 N3          3.3406    2.5899   -0.6626 N.2       1 <0>        -0.6739
     11 C5          3.2828    2.9177    0.6282 C.2       1 <0>         0.5836
     12 O3          4.1822    3.4265    1.2753 O.2       1 <0>        -0.5515
     13 O4          2.0627    2.5981    1.0944 O.3       1 <0>        -0.1739
     14 O5          1.9169    1.6204   -2.2941 O.3       1 <0>        -0.6370
     15 H2         -0.5459    1.8868   -0.8726 H         1 <0>         0.0929
     16 H3         -0.5289    1.8773    0.9072 H         1 <0>         0.0987
     17 H4         -3.0795   -0.9232    0.8045 H         1 <0>         0.3999
     18 H5          0.8750   -1.4823   -1.1342 H         1 <0>         0.3368
     19 H6          0.3968   -0.1538   -2.0130 H         1 <0>         0.3665
@<TRIPOS>BOND
     1    1    2 1
     2    1    8 1
     3    1   15 1
     4    1   16 1
     5    2    3 1
     6    2    4 1
     7    2    7 1
     8    4    5 2
     9    4    6 1
    10    6   17 1
    11    7   18 1
    12    7   19 1
    13    8   13 1
    14    8    9 1
    15    9   10 2
    16    9   14 1
    17   10   11 1
    18   11   12 2
    19   11   13 1
@<TRIPOS>MOLECULE
CHEMBL192130
   76    77     0     0     0
SMALL
USER_CHARGES

@<TRIPOS>ATOM
      1 C1         -2.2401   -6.8717    5.5602 C.3       1 <0>        -0.1585
      2 C2         -1.7695   -6.5763    4.1347 C.3       1 <0>        -0.1008
      3 C3         -2.7882   -5.6718    3.4384 C.3       1 <0>        -0.1441
      4 C4         -2.3246   -5.3809    2.0343 C.2       1 <0>         0.5208
      5 O1         -1.2821   -5.8508    1.6303 O.2       1 <0>        -0.5300
      6 N1         -3.0686   -4.5985    1.2275 N.am      1 <0>        -0.6057
      7 C5         -4.3862   -4.1074    1.6446 C.3       1 <0>         0.1501
      8 C6         -5.3686   -4.2623    0.5107 C.ar      1 <0>        -0.1103
      9 C7         -6.7161   -4.0797    0.7931 C.ar      1 <0>        -0.0901
     10 C8         -7.6634   -4.1973   -0.2015 C.ar      1 <0>        -0.1362
     11 C9         -7.2659   -4.4994   -1.4962 C.ar      1 <0>         0.1181
     12 C10        -5.9232   -4.6851   -1.7757 C.ar      1 <0>        -0.1444
     13 C11        -4.9710   -4.5722   -0.7709 C.ar      1 <0>        -0.0608
     14 C12        -3.5320   -4.8146   -1.1439 C.3       1 <0>        -0.0852
     15 C13        -2.5885   -4.1977   -0.1054 C.3       1 <0>         0.1243
     16 C14        -1.1869   -4.7092   -0.3176 C.2       1 <0>         0.5530
     17 O2         -0.2487   -3.9418   -0.2768 O.2       1 <0>        -0.5299
     18 N2         -0.9761   -6.0194   -0.5527 N.am      1 <0>        -0.7103
     19 C15         0.3864   -6.5167   -0.7590 C.3       1 <0>         0.1357
     20 C16         0.3467   -8.0264   -1.0042 C.3       1 <0>        -0.1621
     21 C17         1.7696   -8.5457   -1.2196 C.3       1 <0>        -0.0049
     22 N3          1.7315   -9.9952   -1.4550 N.4       1 <0>        -0.5096
     23 C18         3.0977  -10.4938   -1.6619 C.3       1 <0>        -0.0097
     24 C19         3.0580  -12.0035   -1.9070 C.3       1 <0>        -0.1499
     25 C20         4.4810  -12.5228   -2.1225 C.3       1 <0>        -0.1501
     26 C21         4.4413  -14.0325   -2.3676 C.3       1 <0>        -0.0099
     27 N4          5.8075  -14.5311   -2.5745 N.4       1 <0>        -0.5105
     28 C22         5.7694  -15.9806   -2.8098 C.3       1 <0>        -0.0049
     29 C23         7.1923  -16.4999   -3.0253 C.3       1 <0>        -0.1882
     30 C24         7.1526  -18.0096   -3.2704 C.3       1 <0>        -0.0023
     31 N5          8.5188  -18.5082   -3.4773 N.4       1 <0>        -0.6386
     32 O3         -8.1909   -4.6120   -2.4855 O.3       1 <0>        -0.4987
     33 H1         -1.5143   -7.5161    6.0563 H         1 <0>         0.0588
     34 H2         -2.3336   -5.9369    6.1130 H         1 <0>         0.0602
     35 H3         -3.2077   -7.3724    5.5270 H         1 <0>         0.0571
     36 H4         -0.8019   -6.0756    4.1680 H         1 <0>         0.0677
     37 H5         -1.6760   -7.5111    3.5819 H         1 <0>         0.0614
     38 H6         -3.7558   -6.1725    3.4051 H         1 <0>         0.0978
     39 H7         -2.8817   -4.7370    3.9911 H         1 <0>         0.1014
     40 H8         -4.7315   -4.6812    2.5046 H         1 <0>         0.1053
     41 H9         -4.3110   -3.0550    1.9181 H         1 <0>         0.0931
     42 H10        -7.0246   -3.8439    1.8008 H         1 <0>         0.1349
     43 H11        -8.7096   -4.0553    0.0258 H         1 <0>         0.1373
     44 H12        -5.6134   -4.9198   -2.7833 H         1 <0>         0.1296
     45 H13        -3.3525   -5.8882   -1.2012 H         1 <0>         0.0786
     46 H14        -3.3337   -4.3663   -2.1175 H         1 <0>         0.0957
     47 H15        -2.6022   -3.1111   -0.1909 H         1 <0>         0.1194
     48 H16        -1.7266   -6.6332   -0.5854 H         1 <0>         0.3967
     49 H17         0.8276   -6.0197   -1.6230 H         1 <0>         0.0702
     50 H18         0.9872   -6.3080    0.1262 H         1 <0>         0.0776
     51 H19        -0.0945   -8.5233   -0.1402 H         1 <0>         0.0965
     52 H20        -0.2542   -8.2350   -1.8894 H         1 <0>         0.0924
     53 H21         2.2108   -8.0487   -2.0836 H         1 <0>         0.1383
     54 H22         2.3705   -8.3370   -0.3344 H         1 <0>         0.1391
     55 H23         1.3231  -10.4552   -0.6552 H         1 <0>         0.4314
     56 H24         3.5389   -9.9969   -2.5259 H         1 <0>         0.1370
     57 H25         3.6986  -10.2851   -0.7767 H         1 <0>         0.1372
     58 H26         2.6168  -12.5004   -1.0430 H         1 <0>         0.1008
     59 H27         2.4572  -12.2122   -2.7922 H         1 <0>         0.1007
     60 H28         4.9222  -12.0259   -2.9865 H         1 <0>         0.1017
     61 H29         5.0818  -12.3141   -1.2373 H         1 <0>         0.1018
     62 H30         4.0001  -14.5294   -1.5036 H         1 <0>         0.1402
     63 H31         3.8404  -14.2412   -3.2528 H         1 <0>         0.1402
     64 H32         6.2159  -14.0711   -3.3743 H         1 <0>         0.4344
     65 H33         5.3282  -16.4775   -1.9458 H         1 <0>         0.1456
     66 H34         5.1685  -16.1893   -3.6950 H         1 <0>         0.1456
     67 H35         7.6335  -16.0030   -3.8893 H         1 <0>         0.1137
     68 H36         7.7932  -16.2912   -2.1401 H         1 <0>         0.1137
     69 H37         6.7114  -18.5065   -2.4064 H         1 <0>         0.1458
     70 H38         6.5518  -18.2183   -4.1556 H         1 <0>         0.1458
     71 H39         8.4926  -19.5038   -3.6390 H         1 <0>         0.4533
     72 H40         8.9272  -18.0482   -4.2771 H         1 <0>         0.4410
     73 H41        -8.3757   -3.7828   -2.9474 H         1 <0>         0.3985
     74 H42         9.0750  -18.3150   -2.6579 H         1 <0>         0.4411
     75 H43         1.1753  -10.1883   -2.2744 H         1 <0>         0.4307
     76 H44         6.3637  -14.3379   -1.7551 H         1 <0>         0.4345
@<TRIPOS>BOND
     1    1    2 1
     2    1   33 1
     3    1   34 1
     4    1   35 1
     5    2    3 1
     6    2   36 1
     7    2   37 1
     8    3    4 1
     9    3   38 1
    10    3   39 1
    11    4    5 2
    12    4    6 am
    13    6   15 1
    14    6    7 1
    15    7    8 1
    16    7   40 1
    17    7   41 1
    18    8   13 ar
    19    8    9 ar
    20    9   10 ar
    21    9   42 1
    22   10   11 ar
    23   10   43 1
    24   11   12 ar
    25   11   32 1
    26   12   13 ar
    27   12   44 1
    28   13   14 1
    29   14   15 1
    30   14   45 1
    31   14   46 1
    32   15   16 1
    33   15   47 1
    34   16   17 2
    35   16   18 am
    36   18   19 1
    37   18   48 1
    38   19   20 1
    39   19   49 1
    40   19   50 1
    41   20   21 1
    42   20   51 1
    43   20   52 1
    44   21   22 1
    45   21   53 1
    46   21   54 1
    47   22   23 1
    48   22   55 1
    49   22   75 1
    50   23   24 1
    51   23   56 1
    52   23   57 1
    53   24   25 1
    54   24   58 1
    55   24   59 1
    56   25   26 1
    57   25   60 1
    58   25   61 1
    59   26   27 1
    60   26   62 1
    61   26   63 1
    62   27   28 1
    63   27   64 1
    64   27   76 1
    65   28   29 1
    66   28   65 1
    67   28   66 1
    68   29   30 1
    69   29   67 1
    70   29   68 1
    71   30   31 1
    72   30   69 1
    73   30   70 1
    74   31   71 1
    75   31   72 1
    76   31   74 1
    77   32   73 1
@<TRIPOS>MOLECULE
CHEMBL192130
   75    76     0     0     0
SMALL
USER_CHARGES

@<TRIPOS>ATOM
      1 C1         -2.2401   -6.8717    5.5602 C.3       1 <0>        -0.1580
      2 C2         -1.7695   -6.5763    4.1347 C.3       1 <0>        -0.1018
      3 C3         -2.7882   -5.6718    3.4384 C.3       1 <0>        -0.1433
      4 C4         -2.3246   -5.3809    2.0343 C.2       1 <0>         0.5199
      5 O1         -1.2821   -5.8508    1.6303 O.2       1 <0>        -0.5273
      6 N1         -3.0686   -4.5985    1.2275 N.am      1 <0>        -0.6064
      7 C5         -4.3862   -4.1074    1.6446 C.3       1 <0>         0.1505
      8 C6         -5.3686   -4.2623    0.5107 C.ar      1 <0>        -0.1101
      9 C7         -6.7161   -4.0797    0.7931 C.ar      1 <0>        -0.0905
     10 C8         -7.6634   -4.1973   -0.2015 C.ar      1 <0>        -0.1370
     11 C9         -7.2659   -4.4994   -1.4962 C.ar      1 <0>         0.1174
     12 C10        -5.9232   -4.6851   -1.7757 C.ar      1 <0>        -0.1441
     13 C11        -4.9710   -4.5722   -0.7709 C.ar      1 <0>        -0.0595
     14 C12        -3.5320   -4.8146   -1.1439 C.3       1 <0>        -0.0863
     15 C13        -2.5885   -4.1977   -0.1054 C.3       1 <0>         0.1247
     16 C14        -1.1869   -4.7092   -0.3176 C.2       1 <0>         0.5522
     17 O2         -0.2487   -3.9418   -0.2768 O.2       1 <0>        -0.5307
     18 N2         -0.9761   -6.0194   -0.5527 N.am      1 <0>        -0.7096
     19 C15         0.3864   -6.5167   -0.7590 C.3       1 <0>         0.1355
     20 C16         0.3467   -8.0264   -1.0042 C.3       1 <0>        -0.1619
     21 C17         1.7696   -8.5457   -1.2196 C.3       1 <0>        -0.0048
     22 N3          1.7315   -9.9952   -1.4550 N.4       1 <0>        -0.5094
     23 C18         3.0977  -10.4938   -1.6619 C.3       1 <0>        -0.0096
     24 C19         3.0580  -12.0035   -1.9070 C.3       1 <0>        -0.1490
     25 C20         4.4810  -12.5228   -2.1225 C.3       1 <0>        -0.1497
     26 C21         4.4413  -14.0325   -2.3676 C.3       1 <0>        -0.0093
     27 N4          5.8075  -14.5311   -2.5745 N.4       1 <0>        -0.5095
     28 C22         5.7694  -15.9806   -2.8098 C.3       1 <0>        -0.0075
     29 C23         7.1923  -16.4999   -3.0253 C.3       1 <0>        -0.1522
     30 C24         7.1526  -18.0096   -3.2704 C.3       1 <0>         0.0630
     31 N5          8.5188  -18.5082   -3.4773 N.3       1 <0>        -0.8529
     32 O3         -8.1909   -4.6120   -2.4855 O.3       1 <0>        -0.4986
     33 H1         -1.5143   -7.5161    6.0563 H         1 <0>         0.0592
     34 H2         -2.3336   -5.9369    6.1130 H         1 <0>         0.0593
     35 H3         -3.2077   -7.3724    5.5270 H         1 <0>         0.0568
     36 H4         -0.8019   -6.0756    4.1680 H         1 <0>         0.0680
     37 H5         -1.6760   -7.5111    3.5819 H         1 <0>         0.0625
     38 H6         -3.7558   -6.1725    3.4051 H         1 <0>         0.0974
     39 H7         -2.8817   -4.7370    3.9911 H         1 <0>         0.1006
     40 H8         -4.7315   -4.6812    2.5046 H         1 <0>         0.1050
     41 H9         -4.3110   -3.0550    1.9181 H         1 <0>         0.0924
     42 H10        -7.0246   -3.8439    1.8008 H         1 <0>         0.1345
     43 H11        -8.7096   -4.0553    0.0258 H         1 <0>         0.1366
     44 H12        -5.6134   -4.9198   -2.7833 H         1 <0>         0.1298
     45 H13        -3.3525   -5.8882   -1.2012 H         1 <0>         0.0796
     46 H14        -3.3337   -4.3663   -2.1175 H         1 <0>         0.0958
     47 H15        -2.6022   -3.1111   -0.1909 H         1 <0>         0.1187
     48 H16        -1.7266   -6.6332   -0.5854 H         1 <0>         0.3966
     49 H17         0.8276   -6.0197   -1.6230 H         1 <0>         0.0705
     50 H18         0.9872   -6.3080    0.1262 H         1 <0>         0.0779
     51 H19        -0.0945   -8.5233   -0.1402 H         1 <0>         0.0962
     52 H20        -0.2542   -8.2350   -1.8894 H         1 <0>         0.0920
     53 H21         2.2108   -8.0487   -2.0836 H         1 <0>         0.1377
     54 H22         2.3705   -8.3370   -0.3344 H         1 <0>         0.1386
     55 H23         1.3231  -10.4552   -0.6552 H         1 <0>         0.4310
     56 H24         3.5389   -9.9969   -2.5259 H         1 <0>         0.1368
     57 H25         3.6986  -10.2851   -0.7767 H         1 <0>         0.1371
     58 H26         2.6168  -12.5004   -1.0430 H         1 <0>         0.0998
     59 H27         2.4572  -12.2122   -2.7922 H         1 <0>         0.0994
     60 H28         4.9222  -12.0259   -2.9865 H         1 <0>         0.0999
     61 H29         5.0818  -12.3141   -1.2373 H         1 <0>         0.1004
     62 H30         4.0001  -14.5294   -1.5036 H         1 <0>         0.1363
     63 H31         3.8404  -14.2412   -3.2528 H         1 <0>         0.1356
     64 H32         6.2159  -14.0711   -3.3743 H         1 <0>         0.4306
     65 H33         5.3282  -16.4775   -1.9458 H         1 <0>         0.1358
     66 H34         5.1685  -16.1893   -3.6950 H         1 <0>         0.1335
     67 H35         7.6335  -16.0030   -3.8893 H         1 <0>         0.0869
     68 H36         7.7932  -16.2912   -2.1401 H         1 <0>         0.0979
     69 H37         6.7114  -18.5065   -2.4064 H         1 <0>         0.0834
     70 H38         6.5518  -18.2183   -4.1556 H         1 <0>         0.0383
     71 H39         8.5194  -19.5038   -3.6414 H         1 <0>         0.3609
     72 H40        -8.3757   -3.7828   -2.9474 H         1 <0>         0.3978
     73 H41         8.9725  -18.0169   -4.2328 H         1 <0>         0.3469
     74 H42         1.1753  -10.1883   -2.2744 H         1 <0>         0.4302
     75 H43         6.3637  -14.3379   -1.7551 H         1 <0>         0.4317
@<TRIPOS>BOND
     1    1    2 1
     2    1   33 1
     3    1   34 1
     4    1   35 1
     5    2    3 1
     6    2   36 1
     7    2   37 1
     8    3    4 1
     9    3   38 1
    10    3   39 1
    11    4    5 2
    12    4    6 am
    13    6   15 1
    14    6    7 1
    15    7    8 1
    16    7   40 1
    17    7   41 1
    18    8   13 ar
    19    8    9 ar
    20    9   10 ar
    21    9   42 1
    22   10   11 ar
    23   10   43 1
    24   11   12 ar
    25   11   32 1
    26   12   13 ar
    27   12   44 1
    28   13   14 1
    29   14   15 1
    30   14   45 1
    31   14   46 1
    32   15   16 1
    33   15   47 1
    34   16   17 2
    35   16   18 am
    36   18   19 1
    37   18   48 1
    38   19   20 1
    39   19   49 1
    40   19   50 1
    41   20   21 1
    42   20   51 1
    43   20   52 1
    44   21   22 1
    45   21   53 1
    46   21   54 1
    47   22   23 1
    48   22   55 1
    49   22   74 1
    50   23   24 1
    51   23   56 1
    52   23   57 1
    53   24   25 1
    54   24   58 1
    55   24   59 1
    56   25   26 1
    57   25   60 1
    58   25   61 1
    59   26   27 1
    60   26   62 1
    61   26   63 1
    62   27   28 1
    63   27   64 1
    64   27   75 1
    65   28   29 1
    66   28   65 1
    67   28   66 1
    68   29   30 1
    69   29   67 1
    70   29   68 1
    71   30   31 1
    72   30   69 1
    73   30   70 1
    74   31   71 1
    75   31   73 1
    76   32   72 1
@<TRIPOS>MOLECULE
CHEMBL192130
   76    77     0     0     0
SMALL
USER_CHARGES

@<TRIPOS>ATOM
      1 C1         -2.7356   -5.4807   -6.2455 C.3       1 <0>        -0.1583
      2 C2         -2.0835   -5.3793   -4.8651 C.3       1 <0>        -0.1011
      3 C3         -3.0847   -4.7885   -3.8703 C.3       1 <0>        -0.1429
      4 C4         -2.4424   -4.6887   -2.5106 C.2       1 <0>         0.5178
      5 O1         -1.2967   -5.0541   -2.3529 O.2       1 <0>        -0.5240
      6 N1         -3.1411   -4.1934   -1.4700 N.am      1 <0>        -0.6054
      7 C5         -4.4849   -3.6341   -1.6508 C.3       1 <0>         0.1496
      8 C6         -5.3957   -4.1370   -0.5588 C.ar      1 <0>        -0.1103
      9 C7         -6.7591   -3.9127   -0.6995 C.ar      1 <0>        -0.0903
     10 C8         -7.6436   -4.3384    0.2684 C.ar      1 <0>        -0.1360
     11 C9         -7.1664   -4.9955    1.3936 C.ar      1 <0>         0.1177
     12 C10        -5.8079   -5.2219    1.5309 C.ar      1 <0>        -0.1440
     13 C11        -4.9191   -4.7976    0.5516 C.ar      1 <0>        -0.0612
     14 C12        -3.4586   -5.1032    0.7563 C.3       1 <0>        -0.0858
     15 C13        -2.5885   -4.1977   -0.1054 C.3       1 <0>         0.1244
     16 C14        -1.1768   -4.7244   -0.1287 C.2       1 <0>         0.5544
     17 O2         -0.2441   -3.9668    0.0360 O.2       1 <0>        -0.5271
     18 N2         -0.9506   -6.0373   -0.3325 N.am      1 <0>        -0.7182
     19 C15         0.4218   -6.5494   -0.3551 C.3       1 <0>         0.1353
     20 C16         0.3988   -8.0591   -0.6020 C.3       1 <0>        -0.1621
     21 C17         1.8322   -8.5939   -0.6257 C.3       1 <0>        -0.0050
     22 N3          1.8101  -10.0435   -0.8627 N.4       1 <0>        -0.5096
     23 C18         3.1863  -10.5569   -0.8854 C.3       1 <0>        -0.0098
     24 C19         3.1633  -12.0667   -1.1323 C.3       1 <0>        -0.1498
     25 C20         4.5966  -12.6015   -1.1560 C.3       1 <0>        -0.1502
     26 C21         4.5737  -14.1112   -1.4029 C.3       1 <0>        -0.0098
     27 N4          5.9498  -14.6247   -1.4256 N.4       1 <0>        -0.5105
     28 C22         5.9278  -16.0742   -1.6626 C.3       1 <0>        -0.0049
     29 C23         7.3611  -16.6090   -1.6862 C.3       1 <0>        -0.1882
     30 C24         7.3382  -18.1188   -1.9331 C.3       1 <0>        -0.0023
     31 N5          8.7143  -18.6322   -1.9558 N.4       1 <0>        -0.6386
     32 O3         -8.0289   -5.4143    2.3566 O.3       1 <0>        -0.4955
     33 H1         -2.0224   -5.9016   -6.9542 H         1 <0>         0.0587
     34 H2         -3.6127   -6.1252   -6.1865 H         1 <0>         0.0563
     35 H3         -3.0363   -4.4875   -6.5791 H         1 <0>         0.0608
     36 H4         -1.7828   -6.3725   -4.5315 H         1 <0>         0.0602
     37 H5         -1.2065   -4.7348   -4.9240 H         1 <0>         0.0691
     38 H6         -3.3854   -3.7954   -4.2039 H         1 <0>         0.1010
     39 H7         -3.9617   -5.4331   -3.8113 H         1 <0>         0.0979
     40 H8         -4.4337   -2.5461   -1.6080 H         1 <0>         0.0940
     41 H9         -4.8778   -3.9401   -2.6203 H         1 <0>         0.1056
     42 H10        -7.1296   -3.4000   -1.5749 H         1 <0>         0.1350
     43 H11        -8.7026   -4.1611    0.1518 H         1 <0>         0.1374
     44 H12        -5.4360   -5.7328    2.4067 H         1 <0>         0.1298
     45 H13        -3.2047   -4.9539    1.8057 H         1 <0>         0.0973
     46 H14        -3.2685   -6.1421    0.4866 H         1 <0>         0.0776
     47 H15        -2.5987   -3.1858    0.2998 H         1 <0>         0.1188
     48 H16        -1.6966   -6.6432   -0.4642 H         1 <0>         0.3949
     49 H17         0.9794   -6.0591   -1.1532 H         1 <0>         0.0789
     50 H18         0.9017   -6.3450    0.6020 H         1 <0>         0.0710
     51 H19        -0.1587   -8.5494    0.1960 H         1 <0>         0.0925
     52 H20        -0.0810   -8.2635   -1.5591 H         1 <0>         0.0957
     53 H21         2.3897   -8.1037   -1.4237 H         1 <0>         0.1393
     54 H22         2.3120   -8.3895    0.3314 H         1 <0>         0.1386
     55 H23         1.2940  -10.4973   -0.1240 H         1 <0>         0.4307
     56 H24         3.7439  -10.0667   -1.6835 H         1 <0>         0.1373
     57 H25         3.6662  -10.3525    0.0717 H         1 <0>         0.1372
     58 H26         2.6057  -12.5569   -0.3343 H         1 <0>         0.1006
     59 H27         2.6834  -12.2711   -2.0894 H         1 <0>         0.1007
     60 H28         5.1542  -12.1112   -1.9540 H         1 <0>         0.1018
     61 H29         5.0765  -12.3971   -0.1989 H         1 <0>         0.1017
     62 H30         4.0161  -14.6015   -0.6048 H         1 <0>         0.1401
     63 H31         4.0938  -14.3156   -2.3600 H         1 <0>         0.1402
     64 H32         6.4660  -14.1709   -2.1643 H         1 <0>         0.4345
     65 H33         5.3702  -16.5645   -0.8646 H         1 <0>         0.1456
     66 H34         5.4479  -16.2786   -2.6197 H         1 <0>         0.1456
     67 H35         7.9187  -16.1188   -2.4843 H         1 <0>         0.1138
     68 H36         7.8410  -16.4046   -0.7292 H         1 <0>         0.1137
     69 H37         6.7806  -18.6090   -1.1351 H         1 <0>         0.1457
     70 H38         6.8583  -18.3232   -2.8902 H         1 <0>         0.1458
     71 H39         8.6992  -19.6279   -2.1187 H         1 <0>         0.4533
     72 H40         9.2305  -18.1784   -2.6946 H         1 <0>         0.4411
     73 H41        -8.3661   -6.3103    2.2200 H         1 <0>         0.3951
     74 H42         9.1585  -18.4430   -1.0699 H         1 <0>         0.4410
     75 H43         1.3659  -10.2327   -1.7487 H         1 <0>         0.4312
     76 H44         6.3941  -14.4355   -0.5396 H         1 <0>         0.4345
@<TRIPOS>BOND
     1    1    2 1
     2    1   33 1
     3    1   34 1
     4    1   35 1
     5    2    3 1
     6    2   36 1
     7    2   37 1
     8    3    4 1
     9    3   38 1
    10    3   39 1
    11    4    5 2
    12    4    6 am
    13    6   15 1
    14    6    7 1
    15    7    8 1
    16    7   40 1
    17    7   41 1
    18    8   13 ar
    19    8    9 ar
    20    9   10 ar
    21    9   42 1
    22   10   11 ar
    23   10   43 1
    24   11   12 ar
    25   11   32 1
    26   12   13 ar
    27   12   44 1
    28   13   14 1
    29   14   15 1
    30   14   45 1
    31   14   46 1
    32   15   16 1
    33   15   47 1
    34   16   17 2
    35   16   18 am
    36   18   19 1
    37   18   48 1
    38   19   20 1
    39   19   49 1
    40   19   50 1
    41   20   21 1
    42   20   51 1
    43   20   52 1
    44   21   22 1
    45   21   53 1
    46   21   54 1
    47   22   23 1
    48   22   55 1
    49   22   75 1
    50   23   24 1
    51   23   56 1
    52   23   57 1
    53   24   25 1
    54   24   58 1
    55   24   59 1
    56   25   26 1
    57   25   60 1
    58   25   61 1
    59   26   27 1
    60   26   62 1
    61   26   63 1
    62   27   28 1
    63   27   64 1
    64   27   76 1
    65   28   29 1
    66   28   65 1
    67   28   66 1
    68   29   30 1
    69   29   67 1
    70   29   68 1
    71   30   31 1
    72   30   69 1
    73   30   70 1
    74   31   71 1
    75   31   72 1
    76   31   74 1
    77   32   73 1
@<TRIPOS>MOLECULE
CHEMBL192130
   75    76     0     0     0
SMALL
USER_CHARGES

@<TRIPOS>ATOM
      1 C1         -2.7356   -5.4807   -6.2455 C.3       1 <0>        -0.1578
      2 C2         -2.0835   -5.3793   -4.8651 C.3       1 <0>        -0.1021
      3 C3         -3.0847   -4.7885   -3.8703 C.3       1 <0>        -0.1422
      4 C4         -2.4424   -4.6887   -2.5106 C.2       1 <0>         0.5170
      5 O1         -1.2967   -5.0541   -2.3529 O.2       1 <0>        -0.5215
      6 N1         -3.1411   -4.1934   -1.4700 N.am      1 <0>        -0.6061
      7 C5         -4.4849   -3.6341   -1.6508 C.3       1 <0>         0.1500
      8 C6         -5.3957   -4.1370   -0.5588 C.ar      1 <0>        -0.1101
      9 C7         -6.7591   -3.9127   -0.6995 C.ar      1 <0>        -0.0906
     10 C8         -7.6436   -4.3384    0.2684 C.ar      1 <0>        -0.1368
     11 C9         -7.1664   -4.9955    1.3936 C.ar      1 <0>         0.1170
     12 C10        -5.8079   -5.2219    1.5309 C.ar      1 <0>        -0.1437
     13 C11        -4.9191   -4.7976    0.5516 C.ar      1 <0>        -0.0599
     14 C12        -3.4586   -5.1032    0.7563 C.3       1 <0>        -0.0868
     15 C13        -2.5885   -4.1977   -0.1054 C.3       1 <0>         0.1248
     16 C14        -1.1768   -4.7244   -0.1287 C.2       1 <0>         0.5537
     17 O2         -0.2441   -3.9668    0.0360 O.2       1 <0>        -0.5278
     18 N2         -0.9506   -6.0373   -0.3325 N.am      1 <0>        -0.7175
     19 C15         0.4218   -6.5494   -0.3551 C.3       1 <0>         0.1351
     20 C16         0.3988   -8.0591   -0.6020 C.3       1 <0>        -0.1620
     21 C17         1.8322   -8.5939   -0.6257 C.3       1 <0>        -0.0049
     22 N3          1.8101  -10.0435   -0.8627 N.4       1 <0>        -0.5093
     23 C18         3.1863  -10.5569   -0.8854 C.3       1 <0>        -0.0097
     24 C19         3.1633  -12.0667   -1.1323 C.3       1 <0>        -0.1489
     25 C20         4.5966  -12.6015   -1.1560 C.3       1 <0>        -0.1498
     26 C21         4.5737  -14.1112   -1.4029 C.3       1 <0>        -0.0093
     27 N4          5.9498  -14.6247   -1.4256 N.4       1 <0>        -0.5095
     28 C22         5.9278  -16.0742   -1.6626 C.3       1 <0>        -0.0074
     29 C23         7.3611  -16.6090   -1.6862 C.3       1 <0>        -0.1522
     30 C24         7.3382  -18.1188   -1.9331 C.3       1 <0>         0.0630
     31 N5          8.7143  -18.6322   -1.9558 N.3       1 <0>        -0.8529
     32 O3         -8.0289   -5.4143    2.3566 O.3       1 <0>        -0.4959
     33 H1         -2.0224   -5.9016   -6.9542 H         1 <0>         0.0591
     34 H2         -3.6127   -6.1252   -6.1865 H         1 <0>         0.0561
     35 H3         -3.0363   -4.4875   -6.5791 H         1 <0>         0.0599
     36 H4         -1.7828   -6.3725   -4.5315 H         1 <0>         0.0614
     37 H5         -1.2065   -4.7348   -4.9240 H         1 <0>         0.0693
     38 H6         -3.3854   -3.7954   -4.2039 H         1 <0>         0.1002
     39 H7         -3.9617   -5.4331   -3.8113 H         1 <0>         0.0976
     40 H8         -4.4337   -2.5461   -1.6080 H         1 <0>         0.0932
     41 H9         -4.8778   -3.9401   -2.6203 H         1 <0>         0.1053
     42 H10        -7.1296   -3.4000   -1.5749 H         1 <0>         0.1345
     43 H11        -8.7026   -4.1611    0.1518 H         1 <0>         0.1367
     44 H12        -5.4360   -5.7328    2.4067 H         1 <0>         0.1301
     45 H13        -3.2047   -4.9539    1.8057 H         1 <0>         0.0974
     46 H14        -3.2685   -6.1421    0.4866 H         1 <0>         0.0787
     47 H15        -2.5987   -3.1858    0.2998 H         1 <0>         0.1182
     48 H16        -1.6966   -6.6432   -0.4642 H         1 <0>         0.3948
     49 H17         0.9794   -6.0591   -1.1532 H         1 <0>         0.0791
     50 H18         0.9017   -6.3450    0.6020 H         1 <0>         0.0713
     51 H19        -0.1587   -8.5494    0.1960 H         1 <0>         0.0922
     52 H20        -0.0810   -8.2635   -1.5591 H         1 <0>         0.0953
     53 H21         2.3897   -8.1037   -1.4237 H         1 <0>         0.1388
     54 H22         2.3120   -8.3895    0.3314 H         1 <0>         0.1381
     55 H23         1.2940  -10.4973   -0.1240 H         1 <0>         0.4303
     56 H24         3.7439  -10.0667   -1.6835 H         1 <0>         0.1370
     57 H25         3.6662  -10.3525    0.0717 H         1 <0>         0.1371
     58 H26         2.6057  -12.5569   -0.3343 H         1 <0>         0.0997
     59 H27         2.6834  -12.2711   -2.0894 H         1 <0>         0.0995
     60 H28         5.1542  -12.1112   -1.9540 H         1 <0>         0.1000
     61 H29         5.0765  -12.3971   -0.1989 H         1 <0>         0.1004
     62 H30         4.0161  -14.6015   -0.6048 H         1 <0>         0.1362
     63 H31         4.0938  -14.3156   -2.3600 H         1 <0>         0.1356
     64 H32         6.4660  -14.1709   -2.1643 H         1 <0>         0.4306
     65 H33         5.3702  -16.5645   -0.8646 H         1 <0>         0.1358
     66 H34         5.4479  -16.2786   -2.6197 H         1 <0>         0.1335
     67 H35         7.9187  -16.1188   -2.4843 H         1 <0>         0.0869
     68 H36         7.8410  -16.4046   -0.7292 H         1 <0>         0.0979
     69 H37         6.7806  -18.6090   -1.1351 H         1 <0>         0.0833
     70 H38         6.8583  -18.3232   -2.8902 H         1 <0>         0.0383
     71 H39         8.7261  -19.6281   -2.1175 H         1 <0>         0.3609
     72 H40        -8.3661   -6.3103    2.2200 H         1 <0>         0.3950
     73 H41         9.2698  -18.1475   -2.6447 H         1 <0>         0.3469
     74 H42         1.3659  -10.2327   -1.7487 H         1 <0>         0.4307
     75 H43         6.3941  -14.4355   -0.5396 H         1 <0>         0.4317
@<TRIPOS>BOND
     1    1    2 1
     2    1   33 1
     3    1   34 1
     4    1   35 1
     5    2    3 1
     6    2   36 1
     7    2   37 1
     8    3    4 1
     9    3   38 1
    10    3   39 1
    11    4    5 2
    12    4    6 am
    13    6   15 1
    14    6    7 1
    15    7    8 1
    16    7   40 1
    17    7   41 1
    18    8   13 ar
    19    8    9 ar
    20    9   10 ar
    21    9   42 1
    22   10   11 ar
    23   10   43 1
    24   11   12 ar
    25   11   32 1
    26   12   13 ar
    27   12   44 1
    28   13   14 1
    29   14   15 1
    30   14   45 1
    31   14   46 1
    32   15   16 1
    33   15   47 1
    34   16   17 2
    35   16   18 am
    36   18   19 1
    37   18   48 1
    38   19   20 1
    39   19   49 1
    40   19   50 1
    41   20   21 1
    42   20   51 1
    43   20   52 1
    44   21   22 1
    45   21   53 1
    46   21   54 1
    47   22   23 1
    48   22   55 1
    49   22   74 1
    50   23   24 1
    51   23   56 1
    52   23   57 1
    53   24   25 1
    54   24   58 1
    55   24   59 1
    56   25   26 1
    57   25   60 1
    58   25   61 1
    59   26   27 1
    60   26   62 1
    61   26   63 1
    62   27   28 1
    63   27   64 1
    64   27   75 1
    65   28   29 1
    66   28   65 1
    67   28   66 1
    68   29   30 1
    69   29   67 1
    70   29   68 1
    71   30   31 1
    72   30   69 1
    73   30   70 1
    74   31   71 1
    75   31   73 1
    76   32   72 1
@<TRIPOS>MOLECULE
CHEMBL131614
   36    39     0     0     0
SMALL
USER_CHARGES

@<TRIPOS>ATOM
      1 C1         -0.0220    0.3499    0.5227 C.2       1 <0>        -0.2287
      2 C2          1.2627    0.0955    0.8935 C.2       1 <0>         0.2171
      3 N1          2.0776    0.7217    0.0227 N.pl3     1 <0>        -0.2180
      4 N2          1.2767    1.3846   -0.9166 N.am      1 <0>        -0.3140
      5 C3          0.0079    1.1552   -0.6079 C.2       1 <0>         0.1854
      6 C4          1.7183    2.1253   -1.9510 C.2       1 <0>         0.5133
      7 O1          0.9277    2.7304   -2.6453 O.2       1 <0>        -0.4112
      8 C5          3.4794    0.7125    0.0517 C.ar      1 <0>        -0.0154
      9 C6          4.1826    1.9079   -0.0259 C.ar      1 <0>        -0.0488
     10 C7          5.5659    1.8865    0.0066 C.ar      1 <0>        -0.0131
     11 C8          6.2599    0.6648    0.1241 C.ar      1 <0>         0.2977
     12 C9          5.5466   -0.5183    0.1940 C.ar      1 <0>        -0.1459
     13 C10         4.1638   -0.4933    0.1638 C.ar      1 <0>         0.0357
     14 Cl1         3.2745   -1.9811    0.2601 Cl        1 <0>        -0.0505
     15 N3          7.6538    0.6830    0.1822 N.pl3     1 <0>        -0.6949
     16 C11         8.4273    1.7312   -0.4959 C.3       1 <0>         0.3129
     17 N4          7.7518    3.0233   -0.3143 N.pl3     1 <0>        -0.2857
     18 C12         6.3941    3.1039   -0.0851 C.2       1 <0>        -0.0222
     19 C13         6.0761    4.4115    0.0181 C.2       1 <0>        -0.1462
     20 C14         7.3004    5.1056   -0.1477 C.2       1 <0>        -0.0250
     21 N5          8.2465    4.2001   -0.3382 N.2       1 <0>        -0.2030
     22 C15         7.4860    6.5675   -0.1151 C.2       1 <0>         0.5647
     23 O2          6.5255    7.3020    0.0695 O.co2     1 <0>        -0.6880
     24 O3          8.6005    7.0462   -0.2725 O.co2     1 <0>        -0.6681
     25 C16         8.5227    1.4151   -1.9663 C.2       1 <0>         0.4862
     26 O4          7.8492    0.5168   -2.4417 O.co2     1 <0>        -0.6689
     27 O5          9.2733    2.0577   -2.6806 O.co2     1 <0>        -0.6431
     28 H1         -0.9094   -0.0148    1.0186 H         1 <0>         0.2059
     29 H2          1.5739   -0.5025    1.7372 H         1 <0>         0.2341
     30 H3         -0.8524    1.5292   -1.1431 H         1 <0>         0.2364
     31 H4          2.7759    2.1808   -2.1628 H         1 <0>         0.2018
     32 H5          3.6542    2.8460   -0.1105 H         1 <0>         0.1478
     33 H6          6.0685   -1.4602    0.2761 H         1 <0>         0.1597
     34 H7          8.1197   -0.0082    0.6784 H         1 <0>         0.4173
     35 H8          9.4283    1.7801   -0.0673 H         1 <0>         0.1220
     36 H9          5.0986    4.8373    0.1898 H         1 <0>         0.1529
@<TRIPOS>BOND
     1    1    5 1
     2    1    2 2
     3    1   28 1
     4    2    3 1
     5    2   29 1
     6    3    4 1
     7    3    8 1
     8    4    5 2
     9    4    6 am
    10    5   30 1
    11    6    7 2
    12    6   31 1
    13    8   13 ar
    14    8    9 ar
    15    9   10 ar
    16    9   32 1
    17   10   18 1
    18   10   11 ar
    19   11   12 ar
    20   11   15 1
    21   12   13 ar
    22   12   33 1
    23   13   14 1
    24   15   16 1
    25   15   34 1
    26   16   17 1
    27   16   25 1
    28   16   35 1
    29   17   21 1
    30   17   18 1
    31   18   19 2
    32   19   20 1
    33   19   36 1
    34   20   21 2
    35   20   22 1
    36   22   23 2
    37   22   24 1
    38   25   26 2
    39   25   27 1
@<TRIPOS>MOLECULE
CHEMBL131614
   36    39     0     0     0
SMALL
USER_CHARGES

@<TRIPOS>ATOM
      1 C1         -0.0019    0.2459   -0.4725 C.2       1 <0>        -0.2288
      2 C2          1.2954   -0.0228   -0.7842 C.2       1 <0>         0.2180
      3 N1          2.0776    0.7535   -0.0096 N.pl3     1 <0>        -0.2185
      4 N2          1.2427    1.5272    0.8074 N.am      1 <0>        -0.3143
      5 C3         -0.0137    1.2149    0.5219 C.2       1 <0>         0.1859
      6 C4          1.6458    2.4292    1.7225 C.2       1 <0>         0.5135
      7 O1          0.8300    2.9773    2.4347 O.2       1 <0>        -0.4117
      8 C5          3.4794    0.7816   -0.0186 C.ar      1 <0>        -0.0152
      9 C6          4.1481    1.9954   -0.1146 C.ar      1 <0>        -0.0499
     10 C7          5.5319    2.0105   -0.1246 C.ar      1 <0>        -0.0138
     11 C8          6.2611    0.8064   -0.0451 C.ar      1 <0>         0.2943
     12 C9          5.5817   -0.3943    0.0565 C.ar      1 <0>        -0.1460
     13 C10         4.1985   -0.4054    0.0742 C.ar      1 <0>         0.0355
     14 Cl1         3.3522   -1.9153    0.2075 Cl        1 <0>        -0.0501
     15 N3          7.6548    0.8570   -0.0864 N.pl3     1 <0>        -0.6926
     16 C11         8.3870    2.0186    0.4346 C.3       1 <0>         0.3118
     17 N4          7.6797    3.2474    0.0490 N.pl3     1 <0>        -0.2839
     18 C12         6.3246    3.2518   -0.2082 C.2       1 <0>        -0.0244
     19 C13         5.9729    4.5185   -0.5138 C.2       1 <0>        -0.1456
     20 C14         7.1746    5.2659   -0.4391 C.2       1 <0>        -0.0259
     21 N5          8.1415    4.4284   -0.1000 N.2       1 <0>        -0.2002
     22 C15         7.3208    6.7107   -0.6922 C.2       1 <0>         0.5649
     23 O2          6.3441    7.3795   -1.0001 O.co2     1 <0>        -0.6884
     24 O3          8.4187    7.2407   -0.5943 O.co2     1 <0>        -0.6682
     25 C16         8.4646    1.9326    1.9371 C.2       1 <0>         0.4849
     26 O4          7.9566    0.9903    2.5208 O.co2     1 <0>        -0.6696
     27 O5          9.0352    2.8052    2.5690 O.co2     1 <0>        -0.6411
     28 H1         -0.8705   -0.2113   -0.9231 H         1 <0>         0.2060
     29 H2          1.6374   -0.7333   -1.5222 H         1 <0>         0.2343
     30 H3         -0.8932    1.6405    0.9822 H         1 <0>         0.2365
     31 H4          2.6950    2.6648    1.8228 H         1 <0>         0.2012
     32 H5          3.5929    2.9193   -0.1811 H         1 <0>         0.1487
     33 H6          6.1307   -1.3218    0.1259 H         1 <0>         0.1602
     34 H7          8.1482    0.1127   -0.4651 H         1 <0>         0.4177
     35 H8          9.3938    2.0317    0.0171 H         1 <0>         0.1221
     36 H9          4.9875    4.8839   -0.7622 H         1 <0>         0.1528
@<TRIPOS>BOND
     1    1    5 1
     2    1    2 2
     3    1   28 1
     4    2    3 1
     5    2   29 1
     6    3    4 1
     7    3    8 1
     8    4    5 2
     9    4    6 am
    10    5   30 1
    11    6    7 2
    12    6   31 1
    13    8   13 ar
    14    8    9 ar
    15    9   10 ar
    16    9   32 1
    17   10   18 1
    18   10   11 ar
    19   11   12 ar
    20   11   15 1
    21   12   13 ar
    22   12   33 1
    23   13   14 1
    24   15   16 1
    25   15   34 1
    26   16   17 1
    27   16   25 1
    28   16   35 1
    29   17   21 1
    30   17   18 1
    31   18   19 2
    32   19   20 1
    33   19   36 1
    34   20   21 2
    35   20   22 1
    36   22   23 2
    37   22   24 1
    38   25   26 2
    39   25   27 1
@<TRIPOS>MOLECULE
CHEMBL298073
   43    46     0     0     0
SMALL
USER_CHARGES

@<TRIPOS>ATOM
      1 C1         -0.0167    1.3780    0.0096 C.ar      1 <0>        -0.1282
      2 C2          1.1706    2.0866    0.0021 C.ar      1 <0>        -0.0923
      3 C3          2.3773    1.4137   -0.0131 C.ar      1 <0>        -0.1527
      4 C4          2.3974    0.0291   -0.0207 C.ar      1 <0>         0.1019
      5 C5          1.2080   -0.6793   -0.0132 C.ar      1 <0>        -0.1215
      6 C6          0.0021   -0.0041    0.0020 C.ar      1 <0>        -0.0864
      7 C7          1.2281   -2.1862   -0.0220 C.3       1 <0>        -0.0598
      8 C8          1.3746   -2.7026    1.4107 C.3       1 <0>        -0.0713
      9 C9          1.3947   -4.2095    1.4019 C.2       1 <0>         0.4103
     10 N1          1.2975   -4.8204    0.2606 N.2       1 <0>        -0.5061
     11 C10         1.3084   -6.1744    0.1751 C.ar      1 <0>         0.1476
     12 C11         1.2042   -6.8309   -1.0531 C.ar      1 <0>        -0.0782
     13 C12         1.2199   -8.2065   -1.0951 C.ar      1 <0>        -0.1029
     14 C13         1.3383   -8.9534    0.0723 C.ar      1 <0>         0.0833
     15 C14         1.4421   -8.3270    1.2972 C.ar      1 <0>        -0.0749
     16 C15         1.4286   -6.9349    1.3593 C.ar      1 <0>        -0.1709
     17 C16         1.5368   -6.2133    2.6356 C.2       1 <0>         0.5547
     18 O1          1.6429   -6.8092    3.6918 O.2       1 <0>        -0.4871
     19 N2          1.5193   -4.8607    2.5903 N.am      1 <0>        -0.4988
     20 C17         1.6246   -4.1248    3.7777 C.ar      1 <0>         0.1085
     21 C18         0.4814   -3.7808    4.4867 C.ar      1 <0>        -0.0863
     22 C19         0.5883   -3.0552    5.6570 C.ar      1 <0>        -0.1030
     23 C20         1.8323   -2.6704    6.1232 C.ar      1 <0>        -0.0871
     24 C21         2.9730   -3.0105    5.4200 C.ar      1 <0>        -0.1011
     25 C22         2.8736   -3.7424    4.2515 C.ar      1 <0>        -0.0205
     26 Cl1         4.3067   -4.1765    3.3731 Cl        1 <0>        -0.0490
     27 F1          1.3513  -10.3027    0.0062 F         1 <0>        -0.1307
     28 F2          3.5766   -0.6299   -0.0360 F         1 <0>        -0.1360
     29 H1         -0.9594    1.9048    0.0260 H         1 <0>         0.1301
     30 H2          1.1547    3.1665    0.0077 H         1 <0>         0.1324
     31 H3          3.3046    1.9675   -0.0193 H         1 <0>         0.1352
     32 H4         -0.9259   -0.5565    0.0083 H         1 <0>         0.1331
     33 H5          0.2975   -2.5595   -0.4494 H         1 <0>         0.0923
     34 H6          2.0689   -2.5348   -0.6216 H         1 <0>         0.0900
     35 H7          2.3053   -2.3294    1.8381 H         1 <0>         0.0994
     36 H8          0.5338   -2.3540    2.0104 H         1 <0>         0.1021
     37 H9          1.1115   -6.2615   -1.9661 H         1 <0>         0.1536
     38 H10         1.1388   -8.7121   -2.0460 H         1 <0>         0.1502
     39 H11         1.5331   -8.9111    2.2010 H         1 <0>         0.1514
     40 H12        -0.4905   -4.0801    4.1232 H         1 <0>         0.1381
     41 H13        -0.3007   -2.7875    6.2086 H         1 <0>         0.1421
     42 H14         1.9127   -2.1028    7.0384 H         1 <0>         0.1429
     43 H15         3.9429   -2.7080    5.7863 H         1 <0>         0.1452
@<TRIPOS>BOND
     1    1    6 ar
     2    1    2 ar
     3    1   29 1
     4    2    3 ar
     5    2   30 1
     6    3    4 ar
     7    3   31 1
     8    4    5 ar
     9    4   28 1
    10    5    6 ar
    11    5    7 1
    12    6   32 1
    13    7    8 1
    14    7   33 1
    15    7   34 1
    16    8    9 1
    17    8   35 1
    18    8   36 1
    19    9   19 1
    20    9   10 2
    21   10   11 1
    22   11   16 ar
    23   11   12 ar
    24   12   13 ar
    25   12   37 1
    26   13   14 ar
    27   13   38 1
    28   14   15 ar
    29   14   27 1
    30   15   16 ar
    31   15   39 1
    32   16   17 1
    33   17   18 2
    34   17   19 am
    35   19   20 1
    36   20   25 ar
    37   20   21 ar
    38   21   22 ar
    39   21   40 1
    40   22   23 ar
    41   22   41 1
    42   23   24 ar
    43   23   42 1
    44   24   25 ar
    45   24   43 1
    46   25   26 1
@<TRIPOS>MOLECULE
CHEMBL144724
   49    51     0     0     0
SMALL
USER_CHARGES

@<TRIPOS>ATOM
      1 C1         -0.0173    1.4248    0.0099 C.3       1 <0>         0.0208
      2 O1          0.0021   -0.0041    0.0020 O.3       1 <0>        -0.2979
      3 C2          0.6062   -0.6076   -1.0565 C.ar      1 <0>         0.1448
      4 C3          1.1709    0.1591   -2.0586 C.ar      1 <0>        -0.1695
      5 C4          1.7917   -0.4614   -3.1454 C.ar      1 <0>        -0.0663
      6 C5          1.8402   -1.8558   -3.2164 C.ar      1 <0>        -0.2025
      7 C6          1.2741   -2.6179   -2.2117 C.ar      1 <0>         0.1444
      8 C7          0.6606   -1.9970   -1.1270 C.ar      1 <0>         0.0599
      9 O2          0.1093   -2.7485   -0.1380 O.3       1 <0>        -0.3116
     10 C8         -1.2622   -3.1187   -0.2924 C.3       1 <0>         0.0353
     11 O3          1.3206   -3.9754   -2.2805 O.3       1 <0>        -0.2971
     12 C9          1.9698   -4.5455   -3.4187 C.3       1 <0>         0.0218
     13 C10         2.3950    0.3549   -4.2172 C.2       1 <0>         0.5668
     14 O4          2.3519    1.5683   -4.1545 O.2       1 <0>        -0.5173
     15 N1          2.9937   -0.2450   -5.2651 N.am      1 <0>        -0.7312
     16 C11         3.5925    0.5652   -6.3288 C.3       1 <0>         0.1590
     17 C12         4.1913   -0.3408   -7.3736 C.ar      1 <0>        -0.1140
     18 C13         5.5491   -0.5877   -7.3761 C.ar      1 <0>        -0.0182
     19 C14         6.1049   -1.4195   -8.3332 C.ar      1 <0>        -0.0385
     20 C15         5.3052   -2.0080   -9.2918 C.ar      1 <0>        -0.0454
     21 C16         3.9361   -1.7664   -9.2997 C.ar      1 <0>         0.1233
     22 C17         3.3748   -0.9321   -8.3310 C.ar      1 <0>         0.1894
     23 N2          2.0053   -0.6824   -8.3188 N.am      1 <0>        -0.6355
     24 C18         1.2060   -1.2517   -9.2436 C.2       1 <0>         0.5106
     25 C19         1.8048   -2.1479  -10.2747 C.2       1 <0>         0.5120
     26 N3          3.1360   -2.3631  -10.2700 N.am      1 <0>        -0.6317
     27 O5          1.1018   -2.6702  -11.1163 O.2       1 <0>        -0.4457
     28 O6          0.0105   -1.0373   -9.2368 O.2       1 <0>        -0.4395
     29 N4          7.5623   -1.6783   -8.3286 N.pl3     1 <0>         0.0332
     30 O7          8.2650   -1.1637   -7.4901 O.2       1 <0>        -0.1435
     31 O8          8.0500   -2.4043   -9.1633 O.3       1 <0>        -0.1482
     32 H1          1.0053    1.8021    0.0021 H         1 <0>         0.0620
     33 H2         -0.5445    1.7859   -0.8732 H         1 <0>         0.0605
     34 H3         -0.5275    1.7763    0.9067 H         1 <0>         0.1075
     35 H4          1.1317    1.2369   -2.0016 H         1 <0>         0.1521
     36 H5          2.3193   -2.3379   -4.0558 H         1 <0>         0.1353
     37 H6         -1.5762   -3.7150    0.5643 H         1 <0>         0.0970
     38 H7         -1.8763   -2.2204   -0.3545 H         1 <0>         0.0475
     39 H8         -1.3802   -3.7033   -1.2048 H         1 <0>         0.0466
     40 H9          1.9364   -5.6328   -3.3493 H         1 <0>         0.1078
     41 H10         1.4602   -4.2235   -4.3268 H         1 <0>         0.0562
     42 H11         3.0081   -4.2150   -3.4481 H         1 <0>         0.0592
     43 H12         3.0281   -1.2131   -5.3151 H         1 <0>         0.4030
     44 H13         2.8247    1.1893   -6.7860 H         1 <0>         0.0894
     45 H14         4.3726    1.1990   -5.9073 H         1 <0>         0.1046
     46 H15         6.1805   -0.1301   -6.6290 H         1 <0>         0.1708
     47 H16         5.7432   -2.6561  -10.0364 H         1 <0>         0.1730
     48 H17         1.6255   -0.0984   -7.6438 H         1 <0>         0.4289
     49 H18         3.5350   -2.9441  -10.9365 H         1 <0>         0.4310
@<TRIPOS>BOND
     1    1    2 1
     2    1   32 1
     3    1   33 1
     4    1   34 1
     5    2    3 1
     6    3    8 ar
     7    3    4 ar
     8    4    5 ar
     9    4   35 1
    10    5    6 ar
    11    5   13 1
    12    6    7 ar
    13    6   36 1
    14    7    8 ar
    15    7   11 1
    16    8    9 1
    17    9   10 1
    18   10   37 1
    19   10   38 1
    20   10   39 1
    21   11   12 1
    22   12   40 1
    23   12   41 1
    24   12   42 1
    25   13   14 2
    26   13   15 am
    27   15   16 1
    28   15   43 1
    29   16   17 1
    30   16   44 1
    31   16   45 1
    32   17   22 ar
    33   17   18 ar
    34   18   19 ar
    35   18   46 1
    36   19   20 ar
    37   19   29 1
    38   20   21 ar
    39   20   47 1
    40   21   26 1
    41   21   22 ar
    42   22   23 1
    43   23   24 am
    44   23   48 1
    45   24   25 1
    46   24   28 2
    47   25   26 am
    48   25   27 2
    49   26   49 1
    50   29   30 2
    51   29   31 1
@<TRIPOS>MOLECULE
CHEMBL554024
   36    38     0     0     0
SMALL
USER_CHARGES

@<TRIPOS>ATOM
      1 C1         -0.0168    1.3860    0.0097 C.ar      1 <0>        -0.0943
      2 C2          1.1685    2.0929    0.0021 C.ar      1 <0>        -0.0807
      3 C3          2.3800    1.4230   -0.0130 C.ar      1 <0>        -0.0283
      4 C4          2.4113    0.0433   -0.0208 C.ar      1 <0>        -0.0477
      5 C5          1.2238   -0.6797   -0.0138 C.ar      1 <0>         0.1559
      6 C6          0.0021   -0.0041    0.0020 C.ar      1 <0>         0.1839
      7 N1         -1.1976   -0.7101    0.0097 N.am      1 <0>        -0.6351
      8 C7         -1.1886   -2.0585    0.0024 C.2       1 <0>         0.5107
      9 C8          0.1165   -2.7803   -0.0140 C.2       1 <0>         0.5105
     10 N2          1.2635   -2.0712   -0.0221 N.am      1 <0>        -0.6350
     11 O1          0.1460   -3.9946   -0.0208 O.2       1 <0>        -0.4242
     12 O2         -2.2327   -2.6790    0.0094 O.2       1 <0>        -0.4225
     13 N3          3.6463    2.1893   -0.0215 N.pl3     1 <0>         0.0332
     14 O3          4.7055    1.6066   -0.0348 O.2       1 <0>        -0.0907
     15 O4          3.6215    3.3981   -0.0152 O.3       1 <0>        -0.1997
     16 C9          1.1440    3.5997    0.0100 C.3       1 <0>         0.0331
     17 N4          1.3637    4.1001   -1.3536 N.4       1 <0>        -0.3881
     18 C10         0.1956    3.7770   -2.2122 C.3       1 <0>        -0.0130
     19 C11         0.3077    4.8059   -3.3652 C.3       1 <0>        -0.1448
     20 C12         0.8067    6.0794   -2.6447 C.3       1 <0>        -0.1448
     21 C13         1.4623    5.5758   -1.3456 C.3       1 <0>        -0.0054
     22 H1         -0.9594    1.9129    0.0260 H         1 <0>         0.1724
     23 H2          3.3587   -0.4751   -0.0326 H         1 <0>         0.1820
     24 H3          0.1759    3.9455    0.3723 H         1 <0>         0.1476
     25 H4          1.9314    3.9725    0.6651 H         1 <0>         0.1661
     26 H5          0.2699    2.7595   -2.5959 H         1 <0>         0.1295
     27 H6         -0.7356    3.9150   -1.6627 H         1 <0>         0.1367
     28 H7          1.0324    4.4744   -4.1088 H         1 <0>         0.0974
     29 H8         -0.6659    4.9787   -3.8240 H         1 <0>         0.1184
     30 H9          1.5395    6.6002   -3.2611 H         1 <0>         0.1070
     31 H10        -0.0316    6.7373   -2.4152 H         1 <0>         0.1057
     32 H11         0.9329    5.9787   -0.4821 H         1 <0>         0.1341
     33 H12         2.5093    5.8779   -1.3167 H         1 <0>         0.1392
     34 H13         2.1173   -2.5313   -0.0330 H         1 <0>         0.4354
     35 H14        -2.0412   -0.2315    0.0206 H         1 <0>         0.4331
     36 H15         2.2037    3.6974   -1.7413 H         1 <0>         0.4224
@<TRIPOS>BOND
     1    1    6 ar
     2    1    2 ar
     3    1   22 1
     4    2    3 ar
     5    2   16 1
     6    3    4 ar
     7    3   13 1
     8    4    5 ar
     9    4   23 1
    10    5   10 1
    11    5    6 ar
    12    6    7 1
    13    7    8 am
    14    7   35 1
    15    8    9 1
    16    8   12 2
    17    9   10 am
    18    9   11 2
    19   10   34 1
    20   13   14 2
    21   13   15 1
    22   16   17 1
    23   16   24 1
    24   16   25 1
    25   17   21 1
    26   17   18 1
    27   17   36 1
    28   18   19 1
    29   18   26 1
    30   18   27 1
    31   19   20 1
    32   19   28 1
    33   19   29 1
    34   20   21 1
    35   20   30 1
    36   20   31 1
    37   21   32 1
    38   21   33 1
@<TRIPOS>MOLECULE
CHEMBL554024
   35    37     0     0     0
SMALL
USER_CHARGES

@<TRIPOS>ATOM
      1 C1         -0.0168    1.3860    0.0097 C.ar      1 <0>        -0.1190
      2 C2          1.1685    2.0929    0.0021 C.ar      1 <0>         0.0047
      3 C3          2.3800    1.4230   -0.0130 C.ar      1 <0>        -0.0202
      4 C4          2.4113    0.0433   -0.0208 C.ar      1 <0>        -0.0545
      5 C5          1.2238   -0.6797   -0.0138 C.ar      1 <0>         0.1193
      6 C6          0.0021   -0.0041    0.0020 C.ar      1 <0>         0.1747
      7 N1         -1.1976   -0.7101    0.0097 N.am      1 <0>        -0.6337
      8 C7         -1.1886   -2.0585    0.0024 C.2       1 <0>         0.5115
      9 C8          0.1165   -2.7803   -0.0140 C.2       1 <0>         0.5113
     10 N2          1.2635   -2.0712   -0.0221 N.am      1 <0>        -0.6318
     11 O1          0.1460   -3.9946   -0.0208 O.2       1 <0>        -0.4514
     12 O2         -2.2327   -2.6790    0.0094 O.2       1 <0>        -0.4477
     13 N3          3.6463    2.1893   -0.0215 N.pl3     1 <0>         0.0395
     14 O3          4.7055    1.6066   -0.0348 O.2       1 <0>        -0.1717
     15 O4          3.6215    3.3981   -0.0152 O.3       1 <0>        -0.1217
     16 C9          1.1440    3.5997    0.0100 C.3       1 <0>         0.0674
     17 N4          1.3637    4.1001   -1.3536 N.3       1 <0>        -0.5034
     18 C10         0.1673    3.8716   -2.2037 C.3       1 <0>         0.0274
     19 C11         0.3568    4.8834   -3.3617 C.3       1 <0>        -0.1236
     20 C12         0.9640    6.1140   -2.6496 C.3       1 <0>        -0.1331
     21 C13         1.5841    5.5626   -1.3524 C.3       1 <0>         0.0423
     22 H1         -0.9594    1.9129    0.0260 H         1 <0>         0.1597
     23 H2          3.3587   -0.4751   -0.0326 H         1 <0>         0.1697
     24 H3          0.1759    3.9455    0.3723 H         1 <0>         0.0557
     25 H4          1.9314    3.9725    0.6651 H         1 <0>         0.1197
     26 H5          0.1548    2.8500   -2.5836 H         1 <0>         0.0778
     27 H6         -0.7457    4.0881   -1.6491 H         1 <0>         0.0468
     28 H7          1.0468    4.4904   -4.1083 H         1 <0>         0.0747
     29 H8         -0.6020    5.1345   -3.8152 H         1 <0>         0.0721
     30 H9          1.7334    6.5700   -3.2726 H         1 <0>         0.0747
     31 H10         0.1846    6.8397   -2.4177 H         1 <0>         0.0674
     32 H11         1.0954    6.0111   -0.4874 H         1 <0>         0.0475
     33 H12         2.6526    5.7771   -1.3311 H         1 <0>         0.0901
     34 H13         2.1173   -2.5313   -0.0330 H         1 <0>         0.4293
     35 H14        -2.0412   -0.2315    0.0206 H         1 <0>         0.4288
@<TRIPOS>BOND
     1    1    6 ar
     2    1    2 ar
     3    1   22 1
     4    2    3 ar
     5    2   16 1
     6    3    4 ar
     7    3   13 1
     8    4    5 ar
     9    4   23 1
    10    5   10 1
    11    5    6 ar
    12    6    7 1
    13    7    8 am
    14    7   35 1
    15    8    9 1
    16    8   12 2
    17    9   10 am
    18    9   11 2
    19   10   34 1
    20   13   14 2
    21   13   15 1
    22   16   17 1
    23   16   24 1
    24   16   25 1
    25   17   21 1
    26   17   18 1
    27   18   19 1
    28   18   26 1
    29   18   27 1
    30   19   20 1
    31   19   28 1
    32   19   29 1
    33   20   21 1
    34   20   30 1
    35   20   31 1
    36   21   32 1
    37   21   33 1
@<TRIPOS>MOLECULE
CHEMBL326542
   49    52     0     0     0
SMALL
USER_CHARGES

@<TRIPOS>ATOM
      1 C1         -0.0151    1.3807    0.0319 C.ar      1 <0>        -0.1343
      2 C2          0.1400    0.2185    0.7649 C.ar      1 <0>        -0.0989
      3 C3          1.3443   -0.4573    0.7441 C.ar      1 <0>        -0.1201
      4 C4          2.3999    0.0314   -0.0144 C.ar      1 <0>         0.1600
      5 C5          2.2408    1.1985   -0.7498 C.ar      1 <0>        -0.1422
      6 C6          1.0341    1.8699   -0.7244 C.ar      1 <0>        -0.0998
      7 N1          3.6217   -0.6508   -0.0373 N.am      1 <0>        -0.6518
      8 C7          3.6449   -1.9951    0.0571 C.2       1 <0>         0.6537
      9 O1          2.6038   -2.6216    0.0646 O.2       1 <0>        -0.5450
     10 O2          4.8217   -2.6438    0.1430 O.3       1 <0>        -0.3669
     11 C8          4.7714   -4.0686    0.2404 C.3       1 <0>         0.1619
     12 C9          6.1729   -4.6159    0.3270 C.2       1 <0>        -0.2543
     13 C10         7.2343   -3.7805    0.3113 C.2       1 <0>         0.1726
     14 N2          8.5000   -4.2668    0.3894 N.pl3     1 <0>        -0.4282
     15 C11         8.7415   -5.5999    0.4854 C.2       1 <0>         0.1483
     16 C12         7.7216   -6.4853    0.5059 C.2       1 <0>        -0.2639
     17 C13         6.3911   -6.0099    0.4315 C.2       1 <0>         0.4100
     18 O3          5.4487   -6.7885    0.4526 O.2       1 <0>        -0.5199
     19 C14         9.5791   -3.3747    0.3702 C.ar      1 <0>         0.1145
     20 C15        10.0669   -2.8644    1.5541 C.ar      1 <0>        -0.0210
     21 C16        11.1514   -1.9679    1.5344 C.ar      1 <0>         0.1038
     22 C17        11.7261   -1.6030    0.2961 C.ar      1 <0>         0.1495
     23 C18        11.2154   -2.1321   -0.8858 C.ar      1 <0>        -0.0759
     24 C19        10.1580   -3.0120   -0.8483 C.ar      1 <0>        -0.0105
     25 N3          9.6257   -3.5740   -2.1099 N.pl3     1 <0>         0.0330
     26 O4         10.1230   -3.2635   -3.1673 O.2       1 <0>        -0.1515
     27 O5          8.6937   -4.3436   -2.0831 O.3       1 <0>        -0.1382
     28 N4         12.7894   -0.7261    0.2595 N.am      1 <0>        -0.6265
     29 C20        13.2680   -0.2261    1.4196 C.2       1 <0>         0.4894
     30 C21        12.6402   -0.6323    2.6877 C.2       1 <0>         0.1499
     31 N5         11.6281   -1.4706    2.6817 N.2       1 <0>        -0.4058
     32 C22        13.1478   -0.0983    3.9660 C.2       1 <0>         0.5326
     33 O6         12.6265   -0.4356    5.0197 O.co2     1 <0>        -0.6352
     34 O7         14.0899    0.6815    3.9720 O.co2     1 <0>        -0.6313
     35 O8         14.2061    0.5495    1.4164 O.2       1 <0>        -0.4421
     36 H1         -0.9592    1.9051    0.0465 H         1 <0>         0.1241
     37 H2         -0.6814   -0.1610    1.3546 H         1 <0>         0.1272
     38 H3          1.4651   -1.3646    1.3173 H         1 <0>         0.1369
     39 H4          3.0601    1.5812   -1.3404 H         1 <0>         0.1276
     40 H5          0.9099    2.7779   -1.2958 H         1 <0>         0.1278
     41 H6          4.4519   -0.1561   -0.1210 H         1 <0>         0.4177
     42 H7          4.2147   -4.3523    1.1335 H         1 <0>         0.0870
     43 H8          4.2762   -4.4758   -0.6411 H         1 <0>         0.0879
     44 H9          7.0749   -2.7151    0.2354 H         1 <0>         0.1660
     45 H10         9.7594   -5.9556    0.5456 H         1 <0>         0.1617
     46 H11         7.9194   -7.5443    0.5823 H         1 <0>         0.1554
     47 H12         9.6181   -3.1513    2.4936 H         1 <0>         0.1752
     48 H13        11.6524   -1.8547   -1.8337 H         1 <0>         0.1707
     49 H14        13.1884   -0.4720   -0.5873 H         1 <0>         0.4187
@<TRIPOS>BOND
     1    1    6 ar
     2    1    2 ar
     3    1   36 1
     4    2    3 ar
     5    2   37 1
     6    3    4 ar
     7    3   38 1
     8    4    5 ar
     9    4    7 1
    10    5    6 ar
    11    5   39 1
    12    6   40 1
    13    7    8 am
    14    7   41 1
    15    8    9 2
    16    8   10 1
    17   10   11 1
    18   11   12 1
    19   11   42 1
    20   11   43 1
    21   12   17 1
    22   12   13 2
    23   13   14 1
    24   13   44 1
    25   14   15 1
    26   14   19 1
    27   15   16 2
    28   15   45 1
    29   16   17 1
    30   16   46 1
    31   17   18 2
    32   19   24 ar
    33   19   20 ar
    34   20   21 ar
    35   20   47 1
    36   21   31 1
    37   21   22 ar
    38   22   23 ar
    39   22   28 1
    40   23   24 ar
    41   23   48 1
    42   24   25 1
    43   25   26 2
    44   25   27 1
    45   28   29 am
    46   28   49 1
    47   29   30 1
    48   29   35 2
    49   30   31 2
    50   30   32 1
    51   32   33 2
    52   32   34 1
@<TRIPOS>MOLECULE
CHEMBL326542
   48    51     0     0     0
SMALL
USER_CHARGES

@<TRIPOS>ATOM
      1 C1         -0.0151    1.3807    0.0319 C.ar      1 <0>        -0.1385
      2 C2          0.1400    0.2185    0.7649 C.ar      1 <0>        -0.1002
      3 C3          1.3443   -0.4573    0.7441 C.ar      1 <0>        -0.1210
      4 C4          2.3999    0.0314   -0.0144 C.ar      1 <0>         0.1660
      5 C5          2.2408    1.1985   -0.7498 C.ar      1 <0>        -0.1430
      6 C6          1.0341    1.8699   -0.7244 C.ar      1 <0>        -0.1003
      7 N1          3.6217   -0.6508   -0.0373 N.am      1 <0>        -0.6536
      8 C7          3.6449   -1.9951    0.0571 C.2       1 <0>         0.6545
      9 O1          2.6038   -2.6216    0.0646 O.2       1 <0>        -0.5508
     10 O2          4.8217   -2.6438    0.1430 O.3       1 <0>        -0.3617
     11 C8          4.7714   -4.0686    0.2404 C.3       1 <0>         0.1688
     12 C9          6.1729   -4.6159    0.3270 C.2       1 <0>        -0.2800
     13 C10         7.2342   -3.7806    0.3113 C.2       1 <0>         0.1896
     14 N2          8.5001   -4.2670    0.3890 N.pl3     1 <0>        -0.3988
     15 C11         8.7416   -5.6004    0.4845 C.2       1 <0>         0.1633
     16 C12         7.7217   -6.4857    0.5050 C.2       1 <0>        -0.2864
     17 C13         6.3911   -6.0100    0.4315 C.2       1 <0>         0.4136
     18 O3          5.4488   -6.7885    0.4527 O.2       1 <0>        -0.5457
     19 C14         9.5783   -3.3757    0.3698 C.ar      1 <0>         0.0103
     20 C15        10.0581   -2.8723    1.5573 C.ar      1 <0>         0.0059
     21 C16        11.1419   -1.9763    1.5383 C.ar      1 <0>        -0.0098
     22 C17        11.7307   -1.6038    0.2488 C.ar      1 <0>         0.1716
     23 C18        11.1957   -2.1521   -0.9289 C.ar      1 <0>        -0.0487
     24 C19        10.1508   -3.0186   -0.8561 C.ar      1 <0>        -0.0129
     25 N3          9.6009   -3.5932   -2.1045 N.pl3     1 <0>         0.0417
     26 O4         10.0844   -3.2946   -3.1716 O.2       1 <0>        -0.1751
     27 O5          8.6684   -4.3611   -2.0571 O.3       1 <0>        -0.1698
     28 N4         12.7614   -0.7532    0.2210 N.ar      1 <0>        -0.5704
     29 C20        13.2313   -0.2636    1.3514 C.ar      1 <0>         0.4063
     30 C21        12.6640   -0.6226    2.5925 C.ar      1 <0>         0.0565
     31 N5         11.6438   -1.4611    2.6594 N.ar      1 <0>        -0.3953
     32 C22        13.2194   -0.0527    3.8378 C.2       1 <0>         0.5358
     33 O6         14.1630    0.7232    3.7873 O.co2     1 <0>        -0.6437
     34 O7         12.7354   -0.3571    4.9185 O.co2     1 <0>        -0.6835
     35 O8         14.2758    0.5976    1.3208 O.3       1 <0>        -0.5873
     36 H1         -0.9592    1.9051    0.0465 H         1 <0>         0.1218
     37 H2         -0.6814   -0.1610    1.3546 H         1 <0>         0.1253
     38 H3          1.4651   -1.3646    1.3173 H         1 <0>         0.1372
     39 H4          3.0601    1.5812   -1.3404 H         1 <0>         0.1287
     40 H5          0.9099    2.7779   -1.2958 H         1 <0>         0.1264
     41 H6          4.4519   -0.1561   -0.1210 H         1 <0>         0.4201
     42 H7          4.2147   -4.3523    1.1335 H         1 <0>         0.0811
     43 H8          4.2762   -4.4758   -0.6411 H         1 <0>         0.0823
     44 H9          7.0747   -2.7151    0.2358 H         1 <0>         0.1619
     45 H10         9.7595   -5.9562    0.5443 H         1 <0>         0.1576
     46 H11         7.9195   -7.5447    0.5804 H         1 <0>         0.1474
     47 H12         9.6066   -3.1621    2.4946 H         1 <0>         0.1465
     48 H13        11.6159   -1.8893   -1.8884 H         1 <0>         0.1561
@<TRIPOS>BOND
     1    1    6 ar
     2    1    2 ar
     3    1   36 1
     4    2    3 ar
     5    2   37 1
     6    3    4 ar
     7    3   38 1
     8    4    5 ar
     9    4    7 1
    10    5    6 ar
    11    5   39 1
    12    6   40 1
    13    7    8 am
    14    7   41 1
    15    8    9 2
    16    8   10 1
    17   10   11 1
    18   11   12 1
    19   11   42 1
    20   11   43 1
    21   12   17 1
    22   12   13 2
    23   13   14 1
    24   13   44 1
    25   14   15 1
    26   14   19 1
    27   15   16 2
    28   15   45 1
    29   16   17 1
    30   16   46 1
    31   17   18 2
    32   19   24 ar
    33   19   20 ar
    34   20   21 ar
    35   20   47 1
    36   21   31 ar
    37   21   22 ar
    38   22   23 ar
    39   22   28 ar
    40   23   24 ar
    41   23   48 1
    42   24   25 1
    43   25   26 2
    44   25   27 1
    45   28   29 ar
    46   29   30 ar
    47   29   35 1
    48   30   31 ar
    49   30   32 1
    50   32   33 2
    51   32   34 1
@<TRIPOS>MOLECULE
CHEMBL326542
   49    52     0     0     0
SMALL
USER_CHARGES

@<TRIPOS>ATOM
      1 C1         -0.0151    1.3807    0.0319 C.ar      1 <0>        -0.1343
      2 C2          0.1400    0.2185    0.7649 C.ar      1 <0>        -0.0990
      3 C3          1.3443   -0.4573    0.7441 C.ar      1 <0>        -0.1202
      4 C4          2.3999    0.0314   -0.0144 C.ar      1 <0>         0.1601
      5 C5          2.2408    1.1985   -0.7498 C.ar      1 <0>        -0.1422
      6 C6          1.0341    1.8699   -0.7244 C.ar      1 <0>        -0.0998
      7 N1          3.6217   -0.6508   -0.0373 N.am      1 <0>        -0.6520
      8 C7          3.6449   -1.9951    0.0571 C.2       1 <0>         0.6537
      9 O1          2.6038   -2.6216    0.0646 O.2       1 <0>        -0.5450
     10 O2          4.8217   -2.6438    0.1430 O.3       1 <0>        -0.3669
     11 C8          4.7714   -4.0686    0.2404 C.3       1 <0>         0.1621
     12 C9          6.1729   -4.6159    0.3270 C.2       1 <0>        -0.2546
     13 C10         7.2342   -3.7806    0.3113 C.2       1 <0>         0.1733
     14 N2          8.5001   -4.2670    0.3890 N.pl3     1 <0>        -0.4292
     15 C11         8.7416   -5.6004    0.4845 C.2       1 <0>         0.1487
     16 C12         7.7217   -6.4857    0.5050 C.2       1 <0>        -0.2638
     17 C13         6.3911   -6.0100    0.4315 C.2       1 <0>         0.4106
     18 O3          5.4488   -6.7885    0.4527 O.2       1 <0>        -0.5203
     19 C14         9.5783   -3.3757    0.3698 C.ar      1 <0>         0.1222
     20 C15        10.0581   -2.8723    1.5573 C.ar      1 <0>        -0.0219
     21 C16        11.1419   -1.9763    1.5383 C.ar      1 <0>         0.0900
     22 C17        11.7307   -1.6038    0.2488 C.ar      1 <0>         0.0965
     23 C18        11.1957   -2.1521   -0.9289 C.ar      1 <0>         0.0157
     24 C19        10.1508   -3.0186   -0.8561 C.ar      1 <0>        -0.0333
     25 N3          9.6009   -3.5932   -2.1045 N.pl3     1 <0>         0.0327
     26 O4         10.0844   -3.2946   -3.1716 O.2       1 <0>        -0.1500
     27 O5          8.6684   -4.3611   -2.0571 O.3       1 <0>        -0.1400
     28 N4         12.7614   -0.7532    0.2210 N.ar      1 <0>        -0.4534
     29 C20        13.2313   -0.2636    1.3514 C.ar      1 <0>         0.3496
     30 C21        12.6640   -0.6226    2.5925 C.ar      1 <0>         0.0879
     31 N5         11.6438   -1.4611    2.6594 N.ar      1 <0>        -0.3685
     32 C22        13.2194   -0.0527    3.8378 C.2       1 <0>         0.5307
     33 O6         14.1630    0.7232    3.7873 O.co2     1 <0>        -0.6422
     34 O7         12.7354   -0.3571    4.9185 O.co2     1 <0>        -0.6383
     35 O8         14.2758    0.5976    1.3208 O.3       1 <0>        -0.4389
     36 H1         -0.9592    1.9051    0.0465 H         1 <0>         0.1241
     37 H2         -0.6814   -0.1610    1.3546 H         1 <0>         0.1272
     38 H3          1.4651   -1.3646    1.3173 H         1 <0>         0.1368
     39 H4          3.0601    1.5812   -1.3404 H         1 <0>         0.1277
     40 H5          0.9099    2.7779   -1.2958 H         1 <0>         0.1278
     41 H6          4.4519   -0.1561   -0.1210 H         1 <0>         0.4177
     42 H7          4.2147   -4.3523    1.1335 H         1 <0>         0.0868
     43 H8          4.2762   -4.4758   -0.6411 H         1 <0>         0.0881
     44 H9          7.0747   -2.7151    0.2358 H         1 <0>         0.1656
     45 H10         9.7595   -5.9562    0.5443 H         1 <0>         0.1614
     46 H11         7.9195   -7.5447    0.5804 H         1 <0>         0.1554
     47 H12         9.6066   -3.1621    2.4946 H         1 <0>         0.1725
     48 H13        11.6159   -1.8893   -1.8884 H         1 <0>         0.1775
     49 H14        14.0175    1.5268    1.2513 H         1 <0>         0.4115
@<TRIPOS>BOND
     1    1    6 ar
     2    1    2 ar
     3    1   36 1
     4    2    3 ar
     5    2   37 1
     6    3    4 ar
     7    3   38 1
     8    4    5 ar
     9    4    7 1
    10    5    6 ar
    11    5   39 1
    12    6   40 1
    13    7    8 am
    14    7   41 1
    15    8    9 2
    16    8   10 1
    17   10   11 1
    18   11   12 1
    19   11   42 1
    20   11   43 1
    21   12   17 1
    22   12   13 2
    23   13   14 1
    24   13   44 1
    25   14   15 1
    26   14   19 1
    27   15   16 2
    28   15   45 1
    29   16   17 1
    30   16   46 1
    31   17   18 2
    32   19   24 ar
    33   19   20 ar
    34   20   21 ar
    35   20   47 1
    36   21   31 ar
    37   21   22 ar
    38   22   23 ar
    39   22   28 ar
    40   23   24 ar
    41   23   48 1
    42   24   25 1
    43   25   26 2
    44   25   27 1
    45   28   29 ar
    46   29   30 ar
    47   29   35 1
    48   30   31 ar
    49   30   32 1
    50   32   33 2
    51   32   34 1
    52   35   49 1
@<TRIPOS>MOLECULE
CHEMBL268445
   35    38     0     0     0
SMALL
USER_CHARGES

@<TRIPOS>ATOM
      1 C1         -0.0187    1.5258    0.0104 C.3       1 <0>        -0.1521
      2 C2          0.0021   -0.0041    0.0020 C.3       1 <0>         0.0593
      3 O1         -1.3386   -0.4987    0.0122 O.3       1 <0>        -0.3338
      4 C3         -1.4969   -1.8365    0.0065 C.2       1 <0>         0.5620
      5 O2         -0.5237   -2.5632   -0.0067 O.2       1 <0>        -0.4958
      6 C4         -2.8541   -2.4196    0.0163 C.2       1 <0>         0.0412
      7 C5         -3.1586   -3.7921    0.0175 C.2       1 <0>        -0.2091
      8 C6         -4.5243   -3.9117    0.0278 C.2       1 <0>         0.1294
      9 C7         -5.4547   -5.0481    0.0343 C.ar      1 <0>        -0.1474
     10 C8         -5.0094   -6.3662    0.0304 C.ar      1 <0>        -0.0131
     11 C9         -5.9309   -7.3986    0.0374 C.ar      1 <0>         0.0308
     12 C10        -7.2981   -7.1234    0.0478 C.ar      1 <0>         0.0185
     13 C11        -7.7532   -5.8238    0.0514 C.ar      1 <0>        -0.1230
     14 C12        -6.8397   -4.7673    0.0454 C.ar      1 <0>         0.2416
     15 N1         -7.2539   -3.4750    0.0495 N.2       1 <0>        -0.5905
     16 C13        -6.4174   -2.4762    0.0437 C.2       1 <0>         0.6275
     17 N2         -5.0557   -2.6432    0.0328 N.pl3     1 <0>        -0.3223
     18 N3         -3.9870   -1.7391    0.0312 N.2       1 <0>        -0.1968
     19 O3         -6.9134   -1.2191    0.0485 O.3       1 <0>        -0.6172
     20 Cl1        -8.4379   -8.4327    0.0559 Cl        1 <0>        -0.0585
     21 N4         -5.4871   -8.7299    0.0335 N.pl3     1 <0>        -0.4134
     22 C14        -4.5668   -9.2871   -0.8027 C.2       1 <0>         0.1579
     23 N5         -4.4481  -10.5425   -0.4651 N.2       1 <0>        -0.2998
     24 N6         -5.2292  -10.8057    0.5214 N.2       1 <0>        -0.3016
     25 C15        -5.8834   -9.7308    0.8689 C.2       1 <0>         0.1674
     26 H1          1.0039    1.9031    0.0027 H         1 <0>         0.0784
     27 H2         -0.5459    1.8868   -0.8726 H         1 <0>         0.0681
     28 H3         -0.5289    1.8773    0.9072 H         1 <0>         0.0680
     29 H4          0.5123   -0.3556   -0.8948 H         1 <0>         0.0690
     30 H5          0.5293   -0.3651    0.8851 H         1 <0>         0.0689
     31 H6         -2.4465   -4.6041    0.0108 H         1 <0>         0.1632
     32 H7         -3.9513   -6.5823    0.0216 H         1 <0>         0.1403
     33 H8         -8.8141   -5.6219    0.0587 H         1 <0>         0.1513
     34 H9         -4.0347   -8.7839   -1.5965 H         1 <0>         0.2179
     35 H10        -6.6058   -9.6505    1.6676 H         1 <0>         0.2137
@<TRIPOS>BOND
     1    1    2 1
     2    1   26 1
     3    1   27 1
     4    1   28 1
     5    2    3 1
     6    2   29 1
     7    2   30 1
     8    3    4 1
     9    4    5 2
    10    4    6 1
    11    6   18 2
    12    6    7 1
    13    7    8 2
    14    7   31 1
    15    8   17 1
    16    8    9 1
    17    9   14 ar
    18    9   10 ar
    19   10   11 ar
    20   10   32 1
    21   11   12 ar
    22   11   21 1
    23   12   13 ar
    24   12   20 1
    25   13   14 ar
    26   13   33 1
    27   14   15 1
    28   15   16 2
    29   16   17 1
    30   16   19 1
    31   17   18 1
    32   21   25 1
    33   21   22 1
    34   22   23 2
    35   22   34 1
    36   23   24 1
    37   24   25 2
    38   25   35 1
@<TRIPOS>MOLECULE
CHEMBL33751
   44    46     0     0     0
SMALL
USER_CHARGES

@<TRIPOS>ATOM
      1 C1         -0.0187    1.5258    0.0104 C.3       1 <0>        -0.1652
      2 C2          0.0021   -0.0041    0.0020 C.3       1 <0>        -0.0652
      3 C3          0.7099   -0.4944   -1.2602 C.3       1 <0>        -0.1044
      4 C4          0.7531   -2.0236   -1.2650 C.3       1 <0>        -0.1252
      5 C5          1.5132   -2.5128   -0.0302 C.3       1 <0>        -0.0687
      6 H1          2.5277   -2.1146   -0.0464 H         1 <0>         0.0868
      7 C6          0.7960   -2.0306    1.2317 C.3       1 <0>        -0.1089
      8 C7          0.7429   -0.5086    1.2430 C.3       1 <0>        -0.0555
      9 C8         -0.0179   -0.0493    2.4923 C.3       1 <0>        -0.1104
     10 C9         -1.4538   -0.5741    2.4247 C.3       1 <0>        -0.0509
     11 N1         -2.1179   -0.0471    1.2267 N.4       1 <0>        -0.4802
     12 C10        -1.4335   -0.5309    0.0214 C.3       1 <0>        -0.0089
     13 C11        -2.2079   -0.1308    3.6518 C.2       1 <0>         0.4925
     14 O1         -3.0886    0.7070    3.5566 O.co2     1 <0>        -0.6795
     15 O2         -1.9372   -0.6097    4.7399 O.co2     1 <0>        -0.6375
     16 C12         2.1670    0.0506    1.2553 C.3       1 <0>        -0.1464
     17 C13         1.5650   -4.0419   -0.0354 C.3       1 <0>        -0.0964
     18 S1          2.5411   -4.6090   -1.4553 S.3       1 <0>        -0.0426
     19 C14         2.5066   -6.3656   -1.3220 C.2       1 <0>         0.0445
     20 N2          3.0886   -7.2392   -2.1436 N.2       1 <0>        -0.3587
     21 N3          2.8271   -8.4214   -1.7008 N.2       1 <0>        -0.1868
     22 N4          2.1071   -8.3266   -0.6383 N.2       1 <0>        -0.1865
     23 N5          1.8981   -7.0817   -0.3764 N.2       1 <0>        -0.3802
     24 H2          1.0039    1.9031    0.0027 H         1 <0>         0.0824
     25 H3         -0.5459    1.8868   -0.8726 H         1 <0>         0.0674
     26 H4         -0.5289    1.8773    0.9072 H         1 <0>         0.0572
     27 H5          0.1686   -0.1440   -2.1390 H         1 <0>         0.0714
     28 H6          1.7269   -0.1026   -1.2812 H         1 <0>         0.0826
     29 H7         -0.2635   -2.4163   -1.2457 H         1 <0>         0.0638
     30 H8          1.2604   -2.3703   -2.1654 H         1 <0>         0.0852
     31 H9         -0.2199   -2.4256    1.2451 H         1 <0>         0.0627
     32 H10         1.3336   -2.3834    2.1119 H         1 <0>         0.0801
     33 H11         0.4724   -0.4427    3.3828 H         1 <0>         0.1082
     34 H12        -0.0294    1.0399    2.5321 H         1 <0>         0.0813
     35 H13        -1.4402   -1.6632    2.3822 H         1 <0>         0.1319
     36 H14        -3.0786   -0.3555    1.2131 H         1 <0>         0.4248
     37 H15        -1.9623   -0.1765   -0.8634 H         1 <0>         0.1238
     38 H16        -1.4203   -1.6208    0.0240 H         1 <0>         0.1297
     39 H17         2.1294    1.1398    1.2744 H         1 <0>         0.0602
     40 H18         2.6915   -0.3105    2.1399 H         1 <0>         0.0647
     41 H19         2.6945   -0.2790    0.3602 H         1 <0>         0.0704
     42 H20         2.0276   -4.3929    0.8870 H         1 <0>         0.0850
     43 H21         0.5527   -4.4395   -0.1083 H         1 <0>         0.0811
     44 H22        -2.0913    0.9614    1.2452 H         1 <0>         0.4206
@<TRIPOS>BOND
     1    1    2 1
     2    1   24 1
     3    1   25 1
     4    1   26 1
     5    2    8 1
     6    2   12 1
     7    2    3 1
     8    3    4 1
     9    3   27 1
    10    3   28 1
    11    4    5 1
    12    4   29 1
    13    4   30 1
    14    5    6 1
    15    5    7 1
    16    5   17 1
    17    7    8 1
    18    7   31 1
    19    7   32 1
    20    8    9 1
    21    8   16 1
    22    9   10 1
    23    9   33 1
    24    9   34 1
    25   10   11 1
    26   10   13 1
    27   10   35 1
    28   11   12 1
    29   11   36 1
    30   11   44 1
    31   12   37 1
    32   12   38 1
    33   13   14 2
    34   13   15 1
    35   16   39 1
    36   16   40 1
    37   16   41 1
    38   17   18 1
    39   17   42 1
    40   17   43 1
    41   18   19 1
    42   19   20 2
    43   19   23 1
    44   20   21 1
    45   21   22 2
    46   22   23 1
@<TRIPOS>MOLECULE
CHEMBL33751
   44    46     0     0     0
SMALL
USER_CHARGES

@<TRIPOS>ATOM
      1 C1         -0.0187    1.5305    0.0105 C.3       1 <0>        -0.1436
      2 C2          0.0021   -0.0041    0.0020 C.3       1 <0>        -0.0594
      3 C3          0.7046   -0.5044   -1.2602 C.3       1 <0>        -0.1213
      4 C4          2.1274    0.0355   -1.3242 C.3       1 <0>        -0.1141
      5 C5          2.9347   -0.3552   -0.0967 C.3       1 <0>        -0.0658
      6 H1          3.8388    0.2964   -0.0877 H         1 <0>         0.0768
      7 C6          2.2134   -0.1339    1.2141 C.3       1 <0>        -0.0939
      8 C7          0.7388   -0.5113    1.2360 C.3       1 <0>        -0.0473
      9 C8          0.5767   -2.0241    1.3741 C.3       1 <0>        -0.1193
     10 C9         -0.9036   -2.4093    1.3503 C.3       1 <0>        -0.0459
     11 N1         -1.4984   -1.9611    0.0853 N.4       1 <0>        -0.4827
     12 C10        -1.4464   -0.5013   -0.0062 C.3       1 <0>        -0.0038
     13 C11        -1.0238   -3.9117    1.4445 C.2       1 <0>         0.4878
     14 O1         -1.1072   -4.4494    2.5356 O.co2     1 <0>        -0.6427
     15 O2         -1.0376   -4.5870    0.4294 O.co2     1 <0>        -0.6650
     16 C12         0.1217    0.1588    2.4810 C.3       1 <0>        -0.1551
     17 C13         3.4456   -1.7913   -0.2218 C.3       1 <0>        -0.0974
     18 S1          4.6190   -1.8977   -1.6010 S.3       1 <0>        -0.0456
     19 C14         5.1094   -3.5900   -1.6138 C.2       1 <0>         0.0429
     20 N2          5.9694   -4.1646   -2.4548 N.2       1 <0>        -0.3602
     21 N3          6.0544   -5.4097   -2.1316 N.2       1 <0>        -0.1885
     22 N4          5.2857   -5.6401   -1.1254 N.2       1 <0>        -0.1839
     23 N5          4.6976   -4.5458   -0.7808 N.2       1 <0>        -0.3744
     24 H2          1.0039    1.9078    0.0027 H         1 <0>         0.0774
     25 H3         -0.5459    1.8916   -0.8726 H         1 <0>         0.0607
     26 H4         -0.5289    1.8820    0.9073 H         1 <0>         0.0655
     27 H5          0.7211   -1.5948   -1.2622 H         1 <0>         0.0668
     28 H6          0.1475   -0.1635   -2.1378 H         1 <0>         0.0720
     29 H7          2.6181   -0.3853   -2.2162 H         1 <0>         0.0830
     30 H8          2.1243    1.1190   -1.4448 H         1 <0>         0.0700
     31 H9          2.7238   -0.7173    2.0003 H         1 <0>         0.0716
     32 H10         2.3130    0.9204    1.5110 H         1 <0>         0.0701
     33 H11         1.0772   -2.5322    0.5493 H         1 <0>         0.0917
     34 H12         1.0197   -2.3524    2.3166 H         1 <0>         0.1046
     35 H13        -1.4317   -1.9605    2.1865 H         1 <0>         0.1273
     36 H14        -0.9962   -2.3724   -0.6863 H         1 <0>         0.4276
     37 H15        -2.0020   -0.0572    0.8184 H         1 <0>         0.1219
     38 H16        -1.9195   -0.1881   -0.9445 H         1 <0>         0.1198
     39 H17        -0.9355   -0.0987    2.5457 H         1 <0>         0.0515
     40 H18         0.6365   -0.1923    3.3753 H         1 <0>         0.0657
     41 H19         0.2280    1.2407    2.4016 H         1 <0>         0.0666
     42 H20         3.9445   -2.0813    0.7029 H         1 <0>         0.0842
     43 H21         2.6056   -2.4608   -0.4069 H         1 <0>         0.0833
     44 H22        -2.4621   -2.2654    0.0481 H         1 <0>         0.4212
@<TRIPOS>BOND
     1    1    2 1
     2    1   24 1
     3    1   25 1
     4    1   26 1
     5    2    8 1
     6    2   12 1
     7    2    3 1
     8    3    4 1
     9    3   27 1
    10    3   28 1
    11    4    5 1
    12    4   29 1
    13    4   30 1
    14    5    6 1
    15    5    7 1
    16    5   17 1
    17    7    8 1
    18    7   31 1
    19    7   32 1
    20    8    9 1
    21    8   16 1
    22    9   10 1
    23    9   33 1
    24    9   34 1
    25   10   11 1
    26   10   13 1
    27   10   35 1
    28   11   12 1
    29   11   36 1
    30   11   44 1
    31   12   37 1
    32   12   38 1
    33   13   14 2
    34   13   15 1
    35   16   39 1
    36   16   40 1
    37   16   41 1
    38   17   18 1
    39   17   42 1
    40   17   43 1
    41   18   19 1
    42   19   20 2
    43   19   23 1
    44   20   21 1
    45   21   22 2
    46   22   23 1
@<TRIPOS>MOLECULE
CHEMBL282417
   31    33     0     0     0
SMALL
USER_CHARGES

@<TRIPOS>ATOM
      1 C1          0.0883    1.5331    0.0432 C.ar      1 <0>        -0.0254
      2 C2          1.3907    2.0366    0.0315 C.ar      1 <0>         0.0009
      3 C3          2.4740    1.1448   -0.0191 C.ar      1 <0>         0.4160
      4 N1          2.2503   -0.1724   -0.0553 N.ar      1 <0>        -0.4772
      5 C4          1.0265   -0.6635   -0.0453 C.ar      1 <0>         0.4688
      6 C5         -0.0892    0.1759    0.0047 C.ar      1 <0>        -0.1544
      7 N2         -1.4537   -0.3979    0.0160 N.pl3     1 <0>         0.0625
      8 O1         -2.4165    0.3308   -0.0449 O.2       1 <0>        -0.2108
      9 O2         -1.6054   -1.5953    0.0862 O.3       1 <0>        -0.1491
     10 N3          0.8433   -2.0405   -0.0843 N.pl3     1 <0>        -0.6562
     11 C6          0.6280   -2.7402   -1.3608 C.3       1 <0>         0.1181
     12 C7          1.6053   -3.9188   -1.4369 C.3       1 <0>         0.0480
     13 O3          1.4834   -4.7086   -0.2515 O.3       1 <0>        -0.3815
     14 C8          1.8255   -4.0157    0.9512 C.3       1 <0>         0.0469
     15 C9          0.8651   -2.8428    1.1491 C.3       1 <0>         0.1200
     16 N4          3.7409    1.6086   -0.0308 N.2       1 <0>        -0.5870
     17 C10         3.9909    2.8910    0.0039 C.2       1 <0>         0.4416
     18 C11         2.8810    3.8599    0.0569 C.2       1 <0>         0.4777
     19 N5          1.6103    3.4004    0.0697 N.am      1 <0>        -0.6267
     20 O4          3.1059    5.0559    0.0894 O.2       1 <0>        -0.5063
     21 O5          5.2716    3.3304   -0.0085 O.3       1 <0>        -0.5858
     22 H1         -0.7605    2.1996    0.0862 H         1 <0>         0.1540
     23 H2         -0.3965   -3.1091   -1.4089 H         1 <0>         0.0742
     24 H3          0.8120   -2.0567   -2.1896 H         1 <0>         0.0707
     25 H4          1.3706   -4.5307   -2.3078 H         1 <0>         0.0978
     26 H5          2.6246   -3.5418   -1.5200 H         1 <0>         0.0561
     27 H6          1.7491   -4.6973    1.7984 H         1 <0>         0.0980
     28 H7          2.8456   -3.6390    0.8769 H         1 <0>         0.0565
     29 H8          1.2059   -2.2271    1.9815 H         1 <0>         0.0729
     30 H9         -0.1352   -3.2222    1.3580 H         1 <0>         0.0733
     31 H10         0.8636    4.0185    0.1050 H         1 <0>         0.4062
@<TRIPOS>BOND
     1    1    6 ar
     2    1    2 ar
     3    1   22 1
     4    2   19 1
     5    2    3 ar
     6    3    4 ar
     7    3   16 1
     8    4    5 ar
     9    5    6 ar
    10    5   10 1
    11    6    7 1
    12    7    8 2
    13    7    9 1
    14   10   15 1
    15   10   11 1
    16   11   12 1
    17   11   23 1
    18   11   24 1
    19   12   13 1
    20   12   25 1
    21   12   26 1
    22   13   14 1
    23   14   15 1
    24   14   27 1
    25   14   28 1
    26   15   29 1
    27   15   30 1
    28   16   17 2
    29   17   18 1
    30   17   21 1
    31   18   19 am
    32   18   20 2
    33   19   31 1
@<TRIPOS>MOLECULE
CHEMBL282417
   31    33     0     0     0
SMALL
USER_CHARGES

@<TRIPOS>ATOM
      1 C1          0.0887    1.5313    0.0435 C.ar      1 <0>        -0.0307
      2 C2          1.4021    2.0356    0.0317 C.ar      1 <0>         0.1375
      3 C3          2.4793    1.1323   -0.0195 C.ar      1 <0>         0.2939
      4 N1          2.2526   -0.1746   -0.0554 N.ar      1 <0>        -0.4868
      5 C4          1.0241   -0.6643   -0.0449 C.ar      1 <0>         0.4013
      6 C5         -0.0896    0.1771    0.0047 C.ar      1 <0>        -0.0892
      7 N2         -1.4549   -0.3947    0.0155 N.pl3     1 <0>         0.0506
      8 O1         -2.4166    0.3354   -0.0455 O.2       1 <0>        -0.1877
      9 O2         -1.6083   -1.5919    0.0854 O.3       1 <0>        -0.1415
     10 N3          0.8384   -2.0377   -0.0837 N.pl3     1 <0>        -0.6487
     11 C6          0.6222   -2.7371   -1.3602 C.3       1 <0>         0.1158
     12 C7          1.5970   -3.9178   -1.4358 C.3       1 <0>         0.0491
     13 O3          1.4728   -4.7073   -0.2504 O.3       1 <0>        -0.3809
     14 C8          1.8157   -4.0149    0.9525 C.3       1 <0>         0.0481
     15 C9          0.8578   -2.8399    1.1498 C.3       1 <0>         0.1180
     16 N4          3.7737    1.6080   -0.0318 N.am      1 <0>        -0.6159
     17 C10         3.9850    2.9412    0.0057 C.2       1 <0>         0.4846
     18 C11         2.8296    3.8504    0.0587 C.2       1 <0>         0.4209
     19 N5          1.6157    3.3644    0.0694 N.2       1 <0>        -0.5941
     20 O4          3.0234    5.1917    0.0973 O.3       1 <0>        -0.6067
     21 O5          5.1185    3.3856   -0.0038 O.2       1 <0>        -0.5034
     22 H1         -0.7590    2.1990    0.0869 H         1 <0>         0.1666
     23 H2         -0.4031   -3.1038   -1.4089 H         1 <0>         0.0747
     24 H3          0.8081   -2.0540   -2.1891 H         1 <0>         0.0704
     25 H4          1.3613   -4.5293   -2.3068 H         1 <0>         0.0979
     26 H5          2.6172   -3.5430   -1.5184 H         1 <0>         0.0522
     27 H6          1.7375   -4.6963    1.7997 H         1 <0>         0.0980
     28 H7          2.8367   -3.6405    0.8786 H         1 <0>         0.0521
     29 H8          1.1996   -2.2249    1.9823 H         1 <0>         0.0720
     30 H9         -0.1434   -3.2171    1.3582 H         1 <0>         0.0737
     31 H10         4.5228    0.9928   -0.0667 H         1 <0>         0.4081
@<TRIPOS>BOND
     1    1    6 ar
     2    1    2 ar
     3    1   22 1
     4    2   19 1
     5    2    3 ar
     6    3    4 ar
     7    3   16 1
     8    4    5 ar
     9    5    6 ar
    10    5   10 1
    11    6    7 1
    12    7    8 2
    13    7    9 1
    14   10   15 1
    15   10   11 1
    16   11   12 1
    17   11   23 1
    18   11   24 1
    19   12   13 1
    20   12   25 1
    21   12   26 1
    22   13   14 1
    23   14   15 1
    24   14   27 1
    25   14   28 1
    26   15   29 1
    27   15   30 1
    28   16   17 am
    29   16   31 1
    30   17   18 1
    31   17   21 2
    32   18   19 2
    33   18   20 1
@<TRIPOS>MOLECULE
CHEMBL537164
   33    35     0     0     0
SMALL
USER_CHARGES

@<TRIPOS>ATOM
      1 C1         -0.0159    1.3182    0.0093 C.ar      1 <0>        -0.0126
      2 C2          1.1692    2.0294    0.0018 C.ar      1 <0>         0.1073
      3 N1          2.3263    1.3899   -0.0131 N.ar      1 <0>        -0.4983
      4 C3          2.3491    0.0633   -0.0204 C.ar      1 <0>         0.3510
      5 C4          1.1526   -0.6499   -0.0123 C.ar      1 <0>        -0.0082
      6 N2          0.0021   -0.0041    0.0020 N.ar      1 <0>        -0.4006
      7 N3          3.5634   -0.6129   -0.0365 N.pl3     1 <0>        -0.7219
      8 C5          3.5862   -2.0777   -0.0445 C.3       1 <0>         0.1657
      9 C6          5.0145   -2.5579   -0.0618 C.ar      1 <0>        -0.1133
     10 C7          5.5918   -2.9627   -1.2482 C.ar      1 <0>        -0.0162
     11 C8          6.9037   -3.4043   -1.2703 C.ar      1 <0>        -0.0394
     12 C9          7.6440   -3.4430   -0.1062 C.ar      1 <0>        -0.0440
     13 C10         7.0732   -3.0382    1.0951 C.ar      1 <0>         0.1229
     14 C11         5.7519   -2.5873    1.1165 C.ar      1 <0>         0.1931
     15 N4          5.1643   -2.1724    2.3083 N.am      1 <0>        -0.6342
     16 C12         5.8722   -2.1977    3.4557 C.2       1 <0>         0.5113
     17 C13         7.2856   -2.6735    3.4319 C.2       1 <0>         0.5124
     18 N5          7.8260   -3.0804    2.2652 N.am      1 <0>        -0.6317
     19 O1          7.9401   -2.7038    4.4547 O.2       1 <0>        -0.4458
     20 O2          5.3641   -1.8363    4.4981 O.2       1 <0>        -0.4401
     21 N6          7.5145   -3.8371   -2.5473 N.pl3     1 <0>         0.0336
     22 O3          6.8680   -3.8045   -3.5684 O.2       1 <0>        -0.1442
     23 O4          8.6600   -4.2232   -2.5692 O.3       1 <0>        -0.1482
     24 H1         -0.9592    1.8438    0.0256 H         1 <0>         0.1695
     25 H2          1.1500    3.1092    0.0077 H         1 <0>         0.1722
     26 H3          1.1666   -1.7298   -0.0186 H         1 <0>         0.1636
     27 H4          4.3958   -0.1149   -0.0424 H         1 <0>         0.4099
     28 H5          3.0872   -2.4537    0.8487 H         1 <0>         0.0836
     29 H6          3.0689   -2.4443   -0.9312 H         1 <0>         0.0997
     30 H7          5.0178   -2.9352   -2.1626 H         1 <0>         0.1704
     31 H8          8.6670   -3.7883   -0.1284 H         1 <0>         0.1731
     32 H9          8.7443   -3.3917    2.2393 H         1 <0>         0.4310
     33 H10         4.2446   -1.8644    2.3133 H         1 <0>         0.4284
@<TRIPOS>BOND
     1    1    6 ar
     2    1    2 ar
     3    1   24 1
     4    2    3 ar
     5    2   25 1
     6    3    4 ar
     7    4    5 ar
     8    4    7 1
     9    5    6 ar
    10    5   26 1
    11    7    8 1
    12    7   27 1
    13    8    9 1
    14    8   28 1
    15    8   29 1
    16    9   14 ar
    17    9   10 ar
    18   10   11 ar
    19   10   30 1
    20   11   12 ar
    21   11   21 1
    22   12   13 ar
    23   12   31 1
    24   13   18 1
    25   13   14 ar
    26   14   15 1
    27   15   16 am
    28   15   33 1
    29   16   17 1
    30   16   20 2
    31   17   18 am
    32   17   19 2
    33   18   32 1
    34   21   22 2
    35   21   23 1
@<TRIPOS>MOLECULE
CHEMBL64772
   27    29     0     0     0
SMALL
USER_CHARGES

@<TRIPOS>ATOM
      1 C1         -0.0429    0.5472   -0.5242 C.2       1 <0>        -0.0216
      2 C2          1.2085    0.3403   -0.9764 C.2       1 <0>        -0.0457
      3 N1          2.0613    0.7207    0.0274 N.pl3     1 <0>        -0.4230
      4 C3          1.2928    1.1487    1.0622 C.2       1 <0>         0.2348
      5 N2          0.0377    1.0401    0.7205 N.2       1 <0>        -0.4876
      6 C4          3.4630    0.6757   -0.0075 C.ar      1 <0>         0.1835
      7 C5          4.1467    1.3644   -0.9882 C.ar      1 <0>        -0.0863
      8 C6          5.5468    1.3182   -1.0215 C.ar      1 <0>         0.1107
      9 C7          6.2400    0.5677   -0.0512 C.ar      1 <0>         0.0735
     10 C8          5.5312   -0.1195    0.9300 C.ar      1 <0>        -0.0237
     11 C9          4.1568   -0.0606    0.9531 C.ar      1 <0>        -0.0851
     12 N3          3.4082   -0.7884    2.0024 N.pl3     1 <0>         0.0481
     13 O1          4.0035   -1.3273    2.9062 O.2       1 <0>        -0.1743
     14 O2          2.2014   -0.8440    1.9556 O.3       1 <0>        -0.1585
     15 N4          7.6166    0.5247   -0.0870 N.pl3     1 <0>        -0.5740
     16 H1          8.1099    0.0128    0.5729 H         1 <0>         0.4257
     17 C10         8.2690    1.2045   -1.0535 C.2       1 <0>         0.4729
     18 O3          9.6163    1.1742   -1.1045 O.3       1 <0>        -0.5507
     19 C11         7.5520    1.9393   -2.0016 C.2       1 <0>         0.3262
     20 O4          8.2228    2.6181   -2.9695 O.3       1 <0>        -0.5390
     21 N5          6.2338    1.9844   -1.9711 N.pl3     1 <0>        -0.1064
     22 O5          5.6323    2.6321   -2.8091 O.2       1 <0>        -0.4808
     23 H2         -0.9540    0.3540   -1.0711 H         1 <0>         0.1718
     24 H3          1.4870   -0.0503   -1.9440 H         1 <0>         0.1751
     25 H4          1.6588    1.5170    2.0092 H         1 <0>         0.1953
     26 H5          3.6051    1.9362   -1.7272 H         1 <0>         0.1718
     27 H6          6.0599   -0.6958    1.6748 H         1 <0>         0.1675
@<TRIPOS>BOND
     1    1    5 1
     2    1    2 2
     3    1   23 1
     4    2    3 1
     5    2   24 1
     6    3    4 1
     7    3    6 1
     8    4    5 2
     9    4   25 1
    10    6   11 ar
    11    6    7 ar
    12    7    8 ar
    13    7   26 1
    14    8   21 1
    15    8    9 ar
    16    9   10 ar
    17    9   15 1
    18   10   11 ar
    19   10   27 1
    20   11   12 1
    21   12   13 2
    22   12   14 1
    23   15   16 1
    24   15   17 1
    25   17   18 1
    26   17   19 2
    27   19   20 1
    28   19   21 1
    29   21   22 2
@<TRIPOS>MOLECULE
CHEMBL79454
   30    32     0     0     0
SMALL
USER_CHARGES

@<TRIPOS>ATOM
      1 C1          0.0214    0.3268   -0.7685 C.2       1 <0>        -0.1346
      2 C2          1.3215    0.2522   -1.1003 C.2       1 <0>        -0.0107
      3 N1          2.0769    0.7034   -0.0544 N.pl3     1 <0>        -0.4252
      4 C3          1.2847    1.0768    0.9690 C.2       1 <0>         0.0076
      5 C4         -0.0281    0.8692    0.5953 C.2       1 <0>        -0.1798
      6 C5         -1.2283    1.1365    1.3971 C.2       1 <0>         0.5449
      7 O1         -2.3374    0.9028    0.9354 O.co2     1 <0>        -0.6896
      8 O2         -1.1198    1.5931    2.5275 O.co2     1 <0>        -0.6991
      9 C6          3.4774    0.7679   -0.0476 C.ar      1 <0>         0.2318
     10 C7          4.1966    0.0870    0.9217 C.ar      1 <0>        -0.1282
     11 C8          5.5845    0.1500    0.9290 C.ar      1 <0>         0.1897
     12 C9          6.2500    0.9013   -0.0425 C.ar      1 <0>         0.1078
     13 C10         5.5199    1.5817   -1.0111 C.ar      1 <0>        -0.0394
     14 C11         4.1428    1.5103   -1.0168 C.ar      1 <0>        -0.0511
     15 N2          3.3706    2.2313   -2.0536 N.pl3     1 <0>         0.0293
     16 O3          3.9463    2.7772   -2.9659 O.2       1 <0>        -0.1724
     17 O4          2.1641    2.2744   -1.9881 O.3       1 <0>        -0.1039
     18 N3          7.6406    0.9758   -0.0498 N.am      1 <0>        -0.6286
     19 C12         8.3579    0.3199    0.8848 C.2       1 <0>         0.5128
     20 C13         7.6471   -0.4824    1.9215 C.2       1 <0>         0.5128
     21 N4          6.2998   -0.5368    1.9060 N.am      1 <0>        -0.6307
     22 O5          8.2753   -1.0803    2.7719 O.2       1 <0>        -0.4515
     23 O6          9.5710    0.3817    0.8820 O.2       1 <0>        -0.4582
     24 H1         -0.8205    0.0476   -1.3847 H         1 <0>         0.1454
     25 H2          1.7078   -0.1075   -2.0425 H         1 <0>         0.1488
     26 H3          1.6187    1.4700    1.9179 H         1 <0>         0.1673
     27 H4          3.6783   -0.4922    1.6716 H         1 <0>         0.1714
     28 H5          6.0326    2.1633   -1.7629 H         1 <0>         0.1734
     29 H6          5.8284   -1.0552    2.5767 H         1 <0>         0.4313
     30 H7          8.0938    1.5000   -0.7285 H         1 <0>         0.4283
@<TRIPOS>BOND
     1    1    5 1
     2    1    2 2
     3    1   24 1
     4    2    3 1
     5    2   25 1
     6    3    4 1
     7    3    9 1
     8    4    5 2
     9    4   26 1
    10    5    6 1
    11    6    7 2
    12    6    8 1
    13    9   14 ar
    14    9   10 ar
    15   10   11 ar
    16   10   27 1
    17   11   21 1
    18   11   12 ar
    19   12   13 ar
    20   12   18 1
    21   13   14 ar
    22   13   28 1
    23   14   15 1
    24   15   16 2
    25   15   17 1
    26   18   19 am
    27   18   30 1
    28   19   20 1
    29   19   23 2
    30   20   21 am
    31   20   22 2
    32   21   29 1
@<TRIPOS>MOLECULE
CHEMBL79454
   29    31     0     0     0
SMALL
USER_CHARGES

@<TRIPOS>ATOM
      1 C1         -0.0121    0.8832    0.6352 C.2       1 <0>        -0.1487
      2 C2          1.2717    1.0788    0.9807 C.2       1 <0>        -0.0400
      3 N1          2.0770    0.7002   -0.0567 N.pl3     1 <0>        -0.4139
      4 C3          1.3342    0.2546   -1.0882 C.2       1 <0>         0.0610
      5 C4          0.0038    0.3388   -0.7286 C.2       1 <0>        -0.2072
      6 C5         -1.1575   -0.0392   -1.5430 C.2       1 <0>         0.5516
      7 O1         -2.2885    0.0900   -1.0933 O.co2     1 <0>        -0.7042
      8 O2         -0.9949   -0.4836   -2.6718 O.co2     1 <0>        -0.7046
      9 C6          3.4778    0.7662   -0.0484 C.ar      1 <0>         0.2051
     10 C7          4.1916    0.0865    0.9186 C.ar      1 <0>        -0.1280
     11 C8          5.5915    0.1523    0.9271 C.ar      1 <0>         0.2331
     12 C9          6.2540    0.9128   -0.0532 C.ar      1 <0>         0.0371
     13 C10         5.5172    1.5908   -1.0193 C.ar      1 <0>        -0.0453
     14 C11         4.1424    1.5129   -1.0196 C.ar      1 <0>        -0.0994
     15 N2          3.3652    2.2315   -2.0544 N.pl3     1 <0>         0.0450
     16 O3          3.9368    2.7788   -2.9683 O.2       1 <0>        -0.2069
     17 O4          2.1588    2.2710   -1.9856 O.3       1 <0>        -0.1317
     18 N3          7.6354    0.9858   -0.0563 N.am      1 <0>        -0.6277
     19 C12         8.3297    0.3189    0.8912 C.2       1 <0>         0.4782
     20 C13         7.5959   -0.4660    1.8994 C.2       1 <0>         0.4270
     21 N4          6.2906   -0.5117    1.8711 N.2       1 <0>        -0.6000
     22 O5          8.2758   -1.1412    2.8572 O.3       1 <0>        -0.6093
     23 O6          9.5460    0.3654    0.9117 O.2       1 <0>        -0.5203
     24 H1         -0.8829    1.0826    1.2421 H         1 <0>         0.1370
     25 H2          1.6127    1.4728    1.9267 H         1 <0>         0.1526
     26 H3          1.7135   -0.1061   -2.0328 H         1 <0>         0.1517
     27 H4          3.6724   -0.4941    1.6667 H         1 <0>         0.1557
     28 H5          6.0243    2.1755   -1.7725 H         1 <0>         0.1484
     29 H6          8.0988    1.5081   -0.7295 H         1 <0>         0.4038
@<TRIPOS>BOND
     1    1    5 1
     2    1    2 2
     3    1   24 1
     4    2    3 1
     5    2   25 1
     6    3    4 1
     7    3    9 1
     8    4    5 2
     9    4   26 1
    10    5    6 1
    11    6    7 2
    12    6    8 1
    13    9   14 ar
    14    9   10 ar
    15   10   11 ar
    16   10   27 1
    17   11   21 1
    18   11   12 ar
    19   12   13 ar
    20   12   18 1
    21   13   14 ar
    22   13   28 1
    23   14   15 1
    24   15   16 2
    25   15   17 1
    26   18   19 am
    27   18   29 1
    28   19   20 1
    29   19   23 2
    30   20   21 2
    31   20   22 1
@<TRIPOS>MOLECULE
CHEMBL79454
   29    31     0     0     0
SMALL
USER_CHARGES

@<TRIPOS>ATOM
      1 C1          0.0230    0.3208   -0.7742 C.2       1 <0>        -0.1542
      2 C2          1.3234    0.2474   -1.1043 C.2       1 <0>        -0.0015
      3 N1          2.0772    0.6996   -0.0573 N.pl3     1 <0>        -0.4080
      4 C3          1.2827    1.0725    0.9653 C.2       1 <0>         0.0176
      5 C4         -0.0290    0.8634    0.5896 C.2       1 <0>        -0.2020
      6 C5         -1.2307    1.1299    1.3896 C.2       1 <0>         0.5497
      7 O1         -2.3389    0.8952    0.9261 O.co2     1 <0>        -0.7008
      8 O2         -1.1244    1.5868    2.5201 O.co2     1 <0>        -0.7063
      9 C6          3.4753    0.7658   -0.0487 C.ar      1 <0>         0.1534
     10 C7          4.1915    0.0841    0.9210 C.ar      1 <0>        -0.1213
     11 C8          5.5792    0.1499    0.9286 C.ar      1 <0>         0.1038
     12 C9          6.2474    0.9094   -0.0497 C.ar      1 <0>         0.1664
     13 C10         5.5015    1.5920   -1.0225 C.ar      1 <0>        -0.0489
     14 C11         4.1404    1.5132   -1.0198 C.ar      1 <0>        -0.0434
     15 N2          3.3618    2.2316   -2.0536 N.pl3     1 <0>         0.0364
     16 O3          3.9321    2.7794   -2.9681 O.2       1 <0>        -0.1893
     17 O4          2.1554    2.2707   -1.9835 O.3       1 <0>        -0.1299
     18 N3          7.5937    0.9848   -0.0586 N.2       1 <0>        -0.5983
     19 C12         8.3097    0.3579    0.8369 C.2       1 <0>         0.4182
     20 C13         7.6506   -0.4478    1.8783 C.2       1 <0>         0.4781
     21 N4          6.3022   -0.5280    1.8929 N.am      1 <0>        -0.6274
     22 O5          8.3124   -1.0348    2.7148 O.2       1 <0>        -0.5175
     23 O6          9.6615    0.4493    0.8068 O.3       1 <0>        -0.6260
     24 H1         -0.8178    0.0407   -1.3914 H         1 <0>         0.1364
     25 H2          1.7111   -0.1119   -2.0461 H         1 <0>         0.1418
     26 H3          1.6148    1.4663    1.9145 H         1 <0>         0.1602
     27 H4          3.6727   -0.4968    1.6692 H         1 <0>         0.1465
     28 H5          6.0064    2.1771   -1.7769 H         1 <0>         0.1607
     29 H6          5.8477   -1.0533    2.5700 H         1 <0>         0.4056
@<TRIPOS>BOND
     1    1    5 1
     2    1    2 2
     3    1   24 1
     4    2    3 1
     5    2   25 1
     6    3    4 1
     7    3    9 1
     8    4    5 2
     9    4   26 1
    10    5    6 1
    11    6    7 2
    12    6    8 1
    13    9   14 ar
    14    9   10 ar
    15   10   11 ar
    16   10   27 1
    17   11   21 1
    18   11   12 ar
    19   12   13 ar
    20   12   18 1
    21   13   14 ar
    22   13   28 1
    23   14   15 1
    24   15   16 2
    25   15   17 1
    26   18   19 2
    27   19   20 1
    28   19   23 1
    29   20   21 am
    30   20   22 2
    31   21   29 1
@<TRIPOS>MOLECULE
CHEMBL19892
   41    43     0     0     0
SMALL
USER_CHARGES

@<TRIPOS>ATOM
      1 C1         -0.0168    1.3864    0.0097 C.ar      1 <0>        -0.0683
      2 C2          1.1664    2.0948    0.0022 C.ar      1 <0>        -0.1951
      3 C3          2.3839    1.4220   -0.0135 C.ar      1 <0>         0.2393
      4 C4          2.4120    0.0361   -0.0217 C.ar      1 <0>        -0.1042
      5 C5          1.2229   -0.6825   -0.0138 C.ar      1 <0>         0.1823
      6 C6          0.0021   -0.0041    0.0020 C.ar      1 <0>         0.1035
      7 N1         -1.1997   -0.7093    0.0097 N.am      1 <0>        -0.6317
      8 H1         -2.0427   -0.2296    0.0203 H         1 <0>         0.4209
      9 C7         -1.1923   -2.0576    0.0019 C.2       1 <0>         0.5190
     10 O1         -2.2375   -2.6769    0.0078 O.2       1 <0>        -0.4729
     11 C8          0.1113   -2.7810   -0.0144 C.2       1 <0>         0.4966
     12 O2          0.1389   -3.9953   -0.0219 O.2       1 <0>        -0.4392
     13 N2          1.2594   -2.0739   -0.0221 N.am      1 <0>        -0.4929
     14 C9          2.5476   -2.7714   -0.0396 C.3       1 <0>        -0.5004
     15 P1          3.1000   -3.0706    1.6718 P.3       1 <0>         2.2143
     16 O3          3.1345   -1.7323    2.4431 O.2       1 <0>        -1.0646
     17 O4          2.1192   -4.0408    2.3674 O.3       1 <0>        -1.0668
     18 O5          4.5738   -3.7182    1.6546 O.3       1 <0>        -0.9003
     19 N3          3.5806    2.1445   -0.0216 N.pl3     1 <0>        -0.6819
     20 C10         4.2448    2.5239    1.2355 C.3       1 <0>         0.1097
     21 C11         5.7158    2.1009    1.1519 C.3       1 <0>         0.0440
     22 O6          6.2876    2.6215   -0.0505 O.3       1 <0>        -0.3833
     23 C12         5.6861    2.1235   -1.2480 C.3       1 <0>         0.0455
     24 C13         4.2165    2.5427   -1.2874 C.3       1 <0>         0.1103
     25 C14         1.1404    3.6016    0.0105 C.3       1 <0>         0.5244
     26 F1         -0.1864    4.0450    0.0256 F         1 <0>        -0.1833
     27 F2          1.8026    4.0731    1.1491 F         1 <0>        -0.1714
     28 F3          1.7808    4.0854   -1.1353 F         1 <0>        -0.1759
     29 H2         -0.9598    1.9125    0.0260 H         1 <0>         0.1517
     30 H3          3.3579   -0.4849   -0.0346 H         1 <0>         0.1441
     31 H4          2.4379   -3.7241   -0.5577 H         1 <0>         0.1064
     32 H5          3.2854   -2.1589   -0.5577 H         1 <0>         0.0951
     33 H6          4.9319   -3.9045    2.5333 H         1 <0>         0.4170
     34 H7          4.1804    3.6032    1.3735 H         1 <0>         0.0631
     35 H8          3.7640    2.0170    2.0722 H         1 <0>         0.0927
     36 H9          6.2572    2.4940    2.0124 H         1 <0>         0.1011
     37 H10         5.7820    1.0129    1.1452 H         1 <0>         0.0606
     38 H11         6.2061    2.5329   -2.1141 H         1 <0>         0.0972
     39 H12         5.7522    1.0356   -1.2635 H         1 <0>         0.0516
     40 H13         3.7171    2.0484   -2.1206 H         1 <0>         0.0770
     41 H14         4.1492    3.6240   -1.4077 H         1 <0>         0.0650
@<TRIPOS>BOND
     1    1    6 ar
     2    1    2 ar
     3    1   29 1
     4    2    3 ar
     5    2   25 1
     6    3    4 ar
     7    3   19 1
     8    4    5 ar
     9    4   30 1
    10    5   13 1
    11    5    6 ar
    12    6    7 1
    13    7    8 1
    14    7    9 am
    15    9   10 2
    16    9   11 1
    17   11   12 2
    18   11   13 am
    19   13   14 1
    20   14   15 1
    21   14   31 1
    22   14   32 1
    23   15   16 2
    24   15   17 1
    25   15   18 1
    26   18   33 1
    27   19   24 1
    28   19   20 1
    29   20   21 1
    30   20   34 1
    31   20   35 1
    32   21   22 1
    33   21   36 1
    34   21   37 1
    35   22   23 1
    36   23   24 1
    37   23   38 1
    38   23   39 1
    39   24   40 1
    40   24   41 1
    41   25   26 1
    42   25   27 1
    43   25   28 1
@<TRIPOS>MOLECULE
CHEMBL19892
   40    42     0     0     0
SMALL
USER_CHARGES

@<TRIPOS>ATOM
      1 C1         -0.0168    1.3864    0.0097 C.ar      1 <0>        -0.0726
      2 C2          1.1664    2.0948    0.0022 C.ar      1 <0>        -0.2101
      3 C3          2.3839    1.4220   -0.0135 C.ar      1 <0>         0.2339
      4 C4          2.4120    0.0361   -0.0217 C.ar      1 <0>        -0.0944
      5 C5          1.2229   -0.6825   -0.0138 C.ar      1 <0>         0.1972
      6 C6          0.0021   -0.0041    0.0020 C.ar      1 <0>         0.0877
      7 N1         -1.1997   -0.7093    0.0097 N.am      1 <0>        -0.6312
      8 H1         -2.0427   -0.2296    0.0203 H         1 <0>         0.4137
      9 C7         -1.1923   -2.0576    0.0019 C.2       1 <0>         0.5179
     10 O1         -2.2375   -2.6769    0.0078 O.2       1 <0>        -0.4906
     11 C8          0.1113   -2.7810   -0.0144 C.2       1 <0>         0.4861
     12 O2          0.1389   -3.9953   -0.0219 O.2       1 <0>        -0.4416
     13 N2          1.2594   -2.0739   -0.0221 N.am      1 <0>        -0.4784
     14 C9          2.5476   -2.7714   -0.0396 C.3       1 <0>        -0.4967
     15 P1          3.1000   -3.0706    1.6718 P.3       1 <0>         2.1593
     16 O3          3.1349   -1.7136    2.4540 O.2       1 <0>        -1.1495
     17 O4          2.1055   -4.0544    2.3771 O.3       1 <0>        -1.1531
     18 O5          4.5342   -3.7008    1.6550 O.3       1 <0>        -1.1642
     19 N3          3.5806    2.1445   -0.0216 N.pl3     1 <0>        -0.6787
     20 C10         4.2448    2.5239    1.2355 C.3       1 <0>         0.1126
     21 C11         5.7158    2.1009    1.1519 C.3       1 <0>         0.0409
     22 O6          6.2876    2.6215   -0.0505 O.3       1 <0>        -0.3874
     23 C12         5.6861    2.1235   -1.2480 C.3       1 <0>         0.0434
     24 C13         4.2165    2.5427   -1.2874 C.3       1 <0>         0.1137
     25 C14         1.1404    3.6016    0.0105 C.3       1 <0>         0.5269
     26 F1         -0.1864    4.0450    0.0256 F         1 <0>        -0.1880
     27 F2          1.8026    4.0731    1.1491 F         1 <0>        -0.1735
     28 F3          1.7808    4.0854   -1.1353 F         1 <0>        -0.1796
     29 H2         -0.9598    1.9125    0.0260 H         1 <0>         0.1445
     30 H3          3.3579   -0.4849   -0.0346 H         1 <0>         0.1508
     31 H4          2.4379   -3.7241   -0.5577 H         1 <0>         0.0844
     32 H5          3.2854   -2.1589   -0.5577 H         1 <0>         0.0742
     33 H6          4.1804    3.6032    1.3735 H         1 <0>         0.0573
     34 H7          3.7640    2.0170    2.0722 H         1 <0>         0.0942
     35 H8          6.2572    2.4940    2.0124 H         1 <0>         0.0990
     36 H9          5.7820    1.0129    1.1452 H         1 <0>         0.0694
     37 H10         6.2061    2.5329   -2.1141 H         1 <0>         0.0926
     38 H11         5.7522    1.0356   -1.2635 H         1 <0>         0.0555
     39 H12         3.7171    2.0484   -2.1206 H         1 <0>         0.0747
     40 H13         4.1492    3.6240   -1.4077 H         1 <0>         0.0595
@<TRIPOS>BOND
     1    1    6 ar
     2    1    2 ar
     3    1   29 1
     4    2    3 ar
     5    2   25 1
     6    3    4 ar
     7    3   19 1
     8    4    5 ar
     9    4   30 1
    10    5   13 1
    11    5    6 ar
    12    6    7 1
    13    7    8 1
    14    7    9 am
    15    9   10 2
    16    9   11 1
    17   11   12 2
    18   11   13 am
    19   13   14 1
    20   14   15 1
    21   14   31 1
    22   14   32 1
    23   15   16 2
    24   15   17 1
    25   15   18 1
    26   19   24 1
    27   19   20 1
    28   20   21 1
    29   20   33 1
    30   20   34 1
    31   21   22 1
    32   21   35 1
    33   21   36 1
    34   22   23 1
    35   23   24 1
    36   23   37 1
    37   23   38 1
    38   24   39 1
    39   24   40 1
    40   25   26 1
    41   25   27 1
    42   25   28 1
@<TRIPOS>MOLECULE
CHEMBL19939
   40    42     0     0     0
SMALL
USER_CHARGES

@<TRIPOS>ATOM
      1 C1         -0.0187    1.5258    0.0104 C.3       1 <0>        -0.1107
      2 C2          1.4167    2.0553   -0.0004 C.3       1 <0>        -0.1154
      3 C3          2.1567    1.5485    1.2391 C.3       1 <0>        -0.0813
      4 H1          1.6465    1.9000    2.1359 H         1 <0>         0.0634
      5 C4          2.1775    0.0187    1.2307 C.3       1 <0>        -0.1107
      6 C5          0.7421   -0.5109    1.2415 C.3       1 <0>        -0.0809
      7 H2          0.2319   -0.1594    2.1383 H         1 <0>         0.0578
      8 C6          0.0021   -0.0041    0.0020 C.3       1 <0>        -0.0779
      9 H3         -1.0205   -0.3814    0.0098 H         1 <0>         0.0601
     10 C7          0.7182   -0.4975   -1.2568 C.3       1 <0>        -0.1147
     11 C8          0.7390   -2.0273   -1.2652 C.3       1 <0>        -0.0919
     12 C9          1.4790   -2.5342   -0.0257 C.3       1 <0>        -0.1526
     13 H4          2.5015   -2.1569   -0.0334 H         1 <0>         0.0640
     14 C10         0.7628   -2.0407    1.2331 C.3       1 <0>        -0.0814
     15 C11         1.4994   -4.0410   -0.0340 C.2       1 <0>         0.4950
     16 O1          2.0268   -4.6384   -0.9567 O.co2     1 <0>        -0.7086
     17 O2          0.9885   -4.6626    0.8821 O.co2     1 <0>        -0.7039
     18 C12         3.5921    2.0781    1.2282 C.3       1 <0>        -0.1023
     19 C13         3.5744    3.6021    1.3623 C.3       1 <0>         0.0004
     20 C14         4.9882    4.1237    1.3516 C.2       1 <0>         0.0591
     21 N1          5.6873    4.4899    0.2871 N.2       1 <0>        -0.3907
     22 N2          6.8474    4.8757    0.6966 N.2       1 <0>        -0.2062
     23 N3          6.8984    4.7638    1.9783 N.2       1 <0>        -0.2065
     24 N4          5.7697    4.3100    2.4054 N.2       1 <0>        -0.3923
     25 H5         -0.5289    1.8773    0.9072 H         1 <0>         0.0548
     26 H6         -0.5459    1.8868   -0.8726 H         1 <0>         0.0528
     27 H7          1.9269    1.7038   -0.8972 H         1 <0>         0.0643
     28 H8          1.4019    3.1452    0.0056 H         1 <0>         0.0595
     29 H9          2.6876   -0.3328    0.3339 H         1 <0>         0.0688
     30 H10         2.7046   -0.3424    2.1137 H         1 <0>         0.0562
     31 H11         0.1910   -0.1364   -2.1398 H         1 <0>         0.0484
     32 H12         1.7408   -0.1202   -1.2645 H         1 <0>         0.0669
     33 H13        -0.2836   -2.4046   -1.2575 H         1 <0>         0.0468
     34 H14         1.2492   -2.3788   -2.1620 H         1 <0>         0.0581
     35 H15         1.2900   -2.4018    2.1162 H         1 <0>         0.0547
     36 H16        -0.2598   -2.4180    1.2409 H         1 <0>         0.0535
     37 H17         4.1450    1.6463    2.0625 H         1 <0>         0.0580
     38 H18         4.0744    1.8014    0.2907 H         1 <0>         0.0590
     39 H19         3.0215    4.0339    0.5281 H         1 <0>         0.0653
     40 H20         3.0922    3.8788    2.2998 H         1 <0>         0.0611
@<TRIPOS>BOND
     1    1    8 1
     2    1    2 1
     3    1   25 1
     4    1   26 1
     5    2    3 1
     6    2   27 1
     7    2   28 1
     8    3    4 1
     9    3    5 1
    10    3   18 1
    11    5    6 1
    12    5   29 1
    13    5   30 1
    14    6    7 1
    15    6   14 1
    16    6    8 1
    17    8    9 1
    18    8   10 1
    19   10   11 1
    20   10   31 1
    21   10   32 1
    22   11   12 1
    23   11   33 1
    24   11   34 1
    25   12   13 1
    26   12   14 1
    27   12   15 1
    28   14   35 1
    29   14   36 1
    30   15   16 2
    31   15   17 1
    32   18   19 1
    33   18   37 1
    34   18   38 1
    35   19   39 1
    36   19   40 1
    37   19   20 1
    38   20   21 2
    39   20   24 1
    40   21   22 1
    41   22   23 2
    42   23   24 1
@<TRIPOS>MOLECULE
CHEMBL440455
   49    52     0     0     0
SMALL
USER_CHARGES

@<TRIPOS>ATOM
      1 C1          0.6128    1.2617   -0.1463 C.ar      1 <0>        -0.1178
      2 C2          1.8598    1.8427   -0.2724 C.ar      1 <0>         0.0939
      3 N1          2.9429    1.1013   -0.3939 N.ar      1 <0>        -0.4710
      4 C3          2.8917   -0.2159   -0.4007 C.ar      1 <0>         0.0983
      5 C4          1.6861   -0.8796   -0.2798 C.ar      1 <0>        -0.1401
      6 C5          0.5114   -0.1328   -0.1485 C.ar      1 <0>        -0.0868
      7 C6         -0.8044   -0.8006   -0.0155 C.2       1 <0>         0.5561
      8 O1         -1.8148   -0.1352    0.0977 O.2       1 <0>        -0.5331
      9 N2         -0.8806   -2.1462   -0.0199 N.am      1 <0>        -0.7151
     10 C7         -2.1817   -2.8066    0.1117 C.3       1 <0>         0.1985
     11 C8         -1.9922   -4.3012    0.0777 C.2       1 <0>        -0.1868
     12 C9         -2.0008   -5.1168   -1.0716 C.2       1 <0>        -0.1632
     13 C10        -1.7963   -6.3872   -0.6679 C.2       1 <0>        -0.0054
     14 N3         -1.6615   -6.3865    0.6909 N.pl3     1 <0>        -0.4100
     15 C11        -1.7774   -5.1025    1.1410 C.2       1 <0>         0.0646
     16 C12        -1.4363   -7.5163    1.4909 C.ar      1 <0>         0.2057
     17 C13        -0.3236   -8.3114    1.2675 C.ar      1 <0>        -0.1197
     18 C14        -0.0995   -9.4305    2.0598 C.ar      1 <0>         0.2255
     19 C15        -0.9988   -9.7500    3.0797 C.ar      1 <0>         0.1129
     20 C16        -2.1129   -8.9464    3.2962 C.ar      1 <0>        -0.0414
     21 C17        -2.3267   -7.8334    2.5105 C.ar      1 <0>        -0.0626
     22 N4         -3.5106   -6.9776    2.7493 N.pl3     1 <0>         0.0401
     23 O2         -4.2199   -7.1805    3.7070 O.2       1 <0>        -0.1672
     24 O3         -3.7682   -6.0756    1.9865 O.3       1 <0>        -0.1352
     25 N5         -0.7898  -10.8683    3.8830 N.am      1 <0>        -0.6304
     26 H1         -1.4200  -11.0823    4.5886 H         1 <0>         0.4247
     27 C18         0.2871  -11.6543    3.6811 C.2       1 <0>         0.5181
     28 O4          0.4731  -12.6311    4.3787 O.2       1 <0>        -0.4628
     29 C19         1.2472  -11.3125    2.5924 C.2       1 <0>         0.5090
     30 O5          2.2230  -12.0082    2.3945 O.2       1 <0>        -0.4443
     31 N6          1.0206  -10.2243    1.8292 N.am      1 <0>        -0.4898
     32 C20         1.9547   -9.8768    0.7554 C.3       1 <0>         0.0164
     33 C21         3.0247   -8.9639    1.2964 C.2       1 <0>         0.4872
     34 O6          3.0086   -8.6341    2.4700 O.co2     1 <0>        -0.6763
     35 O7          3.9066   -8.5551    0.5603 O.co2     1 <0>        -0.6773
     36 H2         -0.2699    1.8753   -0.0430 H         1 <0>         0.1477
     37 H3          1.9485    2.9191   -0.2717 H         1 <0>         0.1624
     38 H4          3.8046   -0.7839   -0.5026 H         1 <0>         0.1645
     39 H5          1.6515   -1.9590   -0.2869 H         1 <0>         0.1417
     40 H6         -0.0741   -2.6774   -0.1102 H         1 <0>         0.4036
     41 H7         -2.6406   -2.5199    1.0579 H         1 <0>         0.0758
     42 H8         -2.8280   -2.5035   -0.7121 H         1 <0>         0.0788
     43 H9         -2.1451   -4.7851   -2.0893 H         1 <0>         0.1432
     44 H10        -1.7477   -7.2552   -1.3087 H         1 <0>         0.1661
     45 H11        -1.7111   -4.7840    2.1708 H         1 <0>         0.1570
     46 H12         0.3690   -8.0614    0.4775 H         1 <0>         0.1705
     47 H13        -2.8097   -9.1919    4.0841 H         1 <0>         0.1724
     48 H14         2.4147  -10.7850    0.3659 H         1 <0>         0.1062
     49 H15         1.4157   -9.3704   -0.0453 H         1 <0>         0.0953
@<TRIPOS>BOND
     1    1    6 ar
     2    1    2 ar
     3    1   36 1
     4    2    3 ar
     5    2   37 1
     6    3    4 ar
     7    4    5 ar
     8    4   38 1
     9    5    6 ar
    10    5   39 1
    11    6    7 1
    12    7    8 2
    13    7    9 am
    14    9   10 1
    15    9   40 1
    16   10   11 1
    17   10   41 1
    18   10   42 1
    19   11   15 2
    20   11   12 1
    21   12   13 2
    22   12   43 1
    23   13   14 1
    24   13   44 1
    25   14   15 1
    26   14   16 1
    27   15   45 1
    28   16   21 ar
    29   16   17 ar
    30   17   18 ar
    31   17   46 1
    32   18   31 1
    33   18   19 ar
    34   19   20 ar
    35   19   25 1
    36   20   21 ar
    37   20   47 1
    38   21   22 1
    39   22   23 2
    40   22   24 1
    41   25   26 1
    42   25   27 am
    43   27   28 2
    44   27   29 1
    45   29   30 2
    46   29   31 am
    47   31   32 1
    48   32   33 1
    49   32   48 1
    50   32   49 1
    51   33   34 2
    52   33   35 1
@<TRIPOS>MOLECULE
CHEMBL440455
   48    51     0     0     0
SMALL
USER_CHARGES

@<TRIPOS>ATOM
      1 C1          0.3332    1.1943   -0.5753 C.ar      1 <0>        -0.1184
      2 C2          1.5635    1.8007   -0.7400 C.ar      1 <0>         0.0915
      3 N1          2.6638    1.0822   -0.8434 N.ar      1 <0>        -0.4743
      4 C3          2.6462   -0.2349   -0.7951 C.ar      1 <0>         0.0959
      5 C4          1.4594   -0.9230   -0.6326 C.ar      1 <0>        -0.1391
      6 C5          0.2674   -0.2012   -0.5186 C.ar      1 <0>        -0.0824
      7 C6         -1.0294   -0.8956   -0.3426 C.2       1 <0>         0.5514
      8 O1         -2.0552   -0.2516   -0.2453 O.2       1 <0>        -0.5370
      9 N2         -1.0713   -2.2417   -0.2905 N.am      1 <0>        -0.7085
     10 C7         -2.3536   -2.9285   -0.1165 C.3       1 <0>         0.2013
     11 C8         -2.1263   -4.4180   -0.0907 C.2       1 <0>        -0.1987
     12 C9         -2.1263   -5.2808   -1.2054 C.2       1 <0>        -0.1876
     13 C10        -1.8852   -6.5277   -0.7523 C.2       1 <0>         0.0433
     14 N3         -1.7359   -6.4672    0.6041 N.pl3     1 <0>        -0.3840
     15 C11        -1.8798   -5.1684    1.0021 C.2       1 <0>         0.0247
     16 C12        -1.4734   -7.5547    1.4458 C.ar      1 <0>         0.1188
     17 C13        -2.3469   -7.8535    2.4780 C.ar      1 <0>        -0.1114
     18 C14        -2.0858   -8.9328    3.3129 C.ar      1 <0>         0.1417
     19 C15        -0.9349   -9.7150    3.1034 C.ar      1 <0>         0.1735
     20 C16        -0.0639   -9.3938    2.0514 C.ar      1 <0>        -0.0586
     21 C17        -0.3369   -8.3349    1.2372 C.ar      1 <0>        -0.0496
     22 N4          0.5842   -8.0072    0.1257 N.pl3     1 <0>         0.0483
     23 O2          1.5032   -8.7478   -0.1361 O.2       1 <0>        -0.1879
     24 O3          0.4174   -6.9990   -0.5203 O.3       1 <0>        -0.1630
     25 N5         -0.6652  -10.7666    3.9031 N.2       1 <0>        -0.6063
     26 C18        -1.4614  -11.0851    4.8891 C.2       1 <0>         0.4294
     27 O4         -1.1682  -12.1465    5.6792 O.3       1 <0>        -0.6260
     28 C19        -2.6760  -10.2929    5.1437 C.2       1 <0>         0.4787
     29 O5         -3.4217  -10.5848    6.0608 O.2       1 <0>        -0.5078
     30 N6         -2.9529   -9.2386    4.3458 N.am      1 <0>        -0.4860
     31 C20        -4.1534   -8.4300    4.5724 C.3       1 <0>         0.0236
     32 C21        -5.3011   -9.0020    3.7808 C.2       1 <0>         0.4889
     33 O6         -5.1319   -9.9932    3.0913 O.co2     1 <0>        -0.6745
     34 O7         -6.3987   -8.4736    3.8300 O.co2     1 <0>        -0.6983
     35 H1         -0.5638    1.7894   -0.4872 H         1 <0>         0.1472
     36 H2          1.6247    2.8780   -0.7849 H         1 <0>         0.1608
     37 H3          3.5722   -0.7836   -0.8840 H         1 <0>         0.1627
     38 H4          1.4523   -2.0023   -0.5946 H         1 <0>         0.1437
     39 H5         -0.2524   -2.7558   -0.3682 H         1 <0>         0.4043
     40 H6         -2.8096   -2.6142    0.8224 H         1 <0>         0.0722
     41 H7         -3.0161   -2.6763   -0.9445 H         1 <0>         0.0751
     42 H8         -2.2899   -4.9954   -2.2341 H         1 <0>         0.1343
     43 H9         -1.8216   -7.4201   -1.3573 H         1 <0>         0.1508
     44 H10        -1.8108   -4.8057    2.0170 H         1 <0>         0.1586
     45 H11        -3.2283   -7.2490    2.6338 H         1 <0>         0.1460
     46 H12         0.8216   -9.9889    1.8836 H         1 <0>         0.1585
     47 H13        -4.4031   -8.4399    5.6334 H         1 <0>         0.0927
     48 H14        -3.9667   -7.4049    4.2527 H         1 <0>         0.0816
@<TRIPOS>BOND
     1    1    6 ar
     2    1    2 ar
     3    1   35 1
     4    2    3 ar
     5    2   36 1
     6    3    4 ar
     7    4    5 ar
     8    4   37 1
     9    5    6 ar
    10    5   38 1
    11    6    7 1
    12    7    8 2
    13    7    9 am
    14    9   10 1
    15    9   39 1
    16   10   11 1
    17   10   40 1
    18   10   41 1
    19   11   15 2
    20   11   12 1
    21   12   13 2
    22   12   42 1
    23   13   14 1
    24   13   43 1
    25   14   15 1
    26   14   16 1
    27   15   44 1
    28   16   21 ar
    29   16   17 ar
    30   17   18 ar
    31   17   45 1
    32   18   30 1
    33   18   19 ar
    34   19   20 ar
    35   19   25 1
    36   20   21 ar
    37   20   46 1
    38   21   22 1
    39   22   23 2
    40   22   24 1
    41   25   26 2
    42   26   27 1
    43   26   28 1
    44   28   29 2
    45   28   30 am
    46   30   31 1
    47   31   32 1
    48   31   47 1
    49   31   48 1
    50   32   33 2
    51   32   34 1
@<TRIPOS>MOLECULE
CHEMBL192321
   78    79     0     0     0
SMALL
USER_CHARGES

@<TRIPOS>ATOM
      1 C1          2.2074   -4.6107   -3.9518 C.3       1 <0>        -0.1556
      2 C2          1.8683   -5.1273   -2.5521 C.3       1 <0>        -0.1068
      3 C3          1.9960   -3.9852   -1.5421 C.3       1 <0>        -0.1407
      4 C4          1.6620   -4.4941   -0.1635 C.2       1 <0>         0.5108
      5 O1          1.3523   -5.6559   -0.0045 O.2       1 <0>        -0.5222
      6 N1          1.7075   -3.6582    0.8927 N.am      1 <0>        -0.7251
      7 C5          1.2791   -4.1235    2.2142 C.3       1 <0>         0.1696
      8 C6          1.3353   -2.9622    3.2137 C.3       1 <0>        -0.1173
      9 C7          2.7031   -2.2927    3.0981 C.3       1 <0>        -0.0762
     10 C8          3.8036   -3.3167    3.1944 C.ar      1 <0>        -0.0909
     11 C9          5.0839   -2.8645    3.4876 C.ar      1 <0>        -0.1154
     12 C10         6.1357   -3.7516    3.5840 C.ar      1 <0>        -0.1169
     13 C11         5.9150   -5.1022    3.3865 C.ar      1 <0>        -0.1120
     14 C12         4.6440   -5.5534    3.0977 C.ar      1 <0>        -0.1171
     15 C13         3.5827   -4.6620    3.0038 C.ar      1 <0>        -0.0716
     16 C14         2.2187   -5.2247    2.7011 C.3       1 <0>        -0.0808
     17 C15        -0.1282   -4.6564    2.1328 C.2       1 <0>         0.5344
     18 O2         -0.4554   -5.6101    2.8068 O.2       1 <0>        -0.5117
     19 N2         -1.0232   -4.0731    1.3111 N.am      1 <0>        -0.7344
     20 C16        -2.3573   -4.6562    1.1487 C.3       1 <0>         0.1243
     21 C17        -3.1694   -3.8069    0.1689 C.3       1 <0>        -0.1636
     22 C18        -4.5626   -4.4159   -0.0006 C.3       1 <0>        -0.0055
     23 N3         -5.3424   -3.6004   -0.9413 N.4       1 <0>        -0.5094
     24 C19        -6.6801   -4.1851   -1.1041 C.3       1 <0>        -0.0100
     25 C20        -7.4922   -3.3357   -2.0839 C.3       1 <0>        -0.1497
     26 C21        -8.8855   -3.9447   -2.2534 C.3       1 <0>        -0.1503
     27 C22        -9.6976   -3.0954   -3.2332 C.3       1 <0>        -0.0099
     28 N4        -11.0353   -3.6801   -3.3959 N.4       1 <0>        -0.5105
     29 C23       -11.8150   -2.8646   -4.3367 C.3       1 <0>        -0.0048
     30 C24       -13.2083   -3.4736   -4.5062 C.3       1 <0>        -0.1882
     31 C25       -14.0204   -2.6242   -5.4860 C.3       1 <0>        -0.0022
     32 N5        -15.3582   -3.2090   -5.6487 N.4       1 <0>        -0.6387
     33 H1          3.2287   -4.2301   -3.9610 H         1 <0>         0.0602
     34 H2          2.1164   -5.4244   -4.6713 H         1 <0>         0.0605
     35 H3          1.5186   -3.8096   -4.2201 H         1 <0>         0.0507
     36 H4          0.8469   -5.5080   -2.5429 H         1 <0>         0.0621
     37 H5          2.5570   -5.9284   -2.2838 H         1 <0>         0.0732
     38 H6          3.0174   -3.6046   -1.5513 H         1 <0>         0.0991
     39 H7          1.3073   -3.1842   -1.8104 H         1 <0>         0.0894
     40 H8          2.0239   -2.7484    0.7780 H         1 <0>         0.4064
     41 H9          0.5524   -2.2402    2.9818 H         1 <0>         0.0770
     42 H10         1.1969   -3.3421    4.2259 H         1 <0>         0.0948
     43 H11         2.7724   -1.7798    2.1388 H         1 <0>         0.0749
     44 H12         2.8168   -1.5661    3.9025 H         1 <0>         0.0895
     45 H13         5.2573   -1.8096    3.6410 H         1 <0>         0.1229
     46 H14         7.1283   -3.3925    3.8125 H         1 <0>         0.1261
     47 H15         6.7349   -5.8015    3.4585 H         1 <0>         0.1260
     48 H16         4.4724   -6.6085    2.9433 H         1 <0>         0.1214
     49 H17         1.8070   -5.6749    3.6044 H         1 <0>         0.0975
     50 H18         2.3083   -5.9884    1.9285 H         1 <0>         0.0984
     51 H19        -0.7840   -3.2672    0.8271 H         1 <0>         0.4005
     52 H20        -2.2656   -5.6707    0.7607 H         1 <0>         0.0785
     53 H21        -2.8630   -4.6807    2.1140 H         1 <0>         0.0787
     54 H22        -3.2610   -2.7924    0.5570 H         1 <0>         0.0963
     55 H23        -2.6636   -3.7823   -0.7963 H         1 <0>         0.0959
     56 H24        -4.4710   -5.4303   -0.3886 H         1 <0>         0.1398
     57 H25        -5.0684   -4.4404    0.9647 H         1 <0>         0.1399
     58 H26        -5.4272   -2.6613   -0.5821 H         1 <0>         0.4312
     59 H27        -6.5885   -5.1996   -1.4921 H         1 <0>         0.1376
     60 H28        -7.1858   -4.2096   -0.1388 H         1 <0>         0.1375
     61 H29        -7.5838   -2.3213   -1.6958 H         1 <0>         0.1009
     62 H30        -6.9865   -3.3112   -3.0491 H         1 <0>         0.1009
     63 H31        -8.7938   -4.9592   -2.6414 H         1 <0>         0.1019
     64 H32        -9.3912   -3.9692   -1.2881 H         1 <0>         0.1018
     65 H33        -9.7892   -2.0809   -2.8451 H         1 <0>         0.1402
     66 H34        -9.1919   -3.0709   -4.1984 H         1 <0>         0.1402
     67 H35       -10.9505   -4.6192   -3.7551 H         1 <0>         0.4346
     68 H36       -11.9067   -1.8501   -3.9486 H         1 <0>         0.1456
     69 H37       -11.3093   -2.8401   -5.3019 H         1 <0>         0.1456
     70 H38       -13.1167   -4.4881   -4.8942 H         1 <0>         0.1138
     71 H39       -13.7140   -3.4981   -3.5409 H         1 <0>         0.1137
     72 H40       -14.1121   -1.6098   -5.0979 H         1 <0>         0.1458
     73 H41       -13.5147   -2.5997   -6.4512 H         1 <0>         0.1458
     74 H42       -15.2733   -4.1480   -6.0079 H         1 <0>         0.4411
     75 H43       -15.8263   -3.2316   -4.7552 H         1 <0>         0.4411
     76 H44       -15.8937   -2.6488   -6.2949 H         1 <0>         0.4534
     77 H45        -4.8742   -3.5777   -1.8348 H         1 <0>         0.4314
     78 H46       -11.5034   -3.7028   -2.5024 H         1 <0>         0.4345
@<TRIPOS>BOND
     1    1    2 1
     2    1   33 1
     3    1   34 1
     4    1   35 1
     5    2    3 1
     6    2   36 1
     7    2   37 1
     8    3    4 1
     9    3   38 1
    10    3   39 1
    11    4    5 2
    12    4    6 am
    13    6    7 1
    14    6   40 1
    15    7   16 1
    16    7    8 1
    17    7   17 1
    18    8    9 1
    19    8   41 1
    20    8   42 1
    21    9   10 1
    22    9   43 1
    23    9   44 1
    24   10   15 ar
    25   10   11 ar
    26   11   12 ar
    27   11   45 1
    28   12   13 ar
    29   12   46 1
    30   13   14 ar
    31   13   47 1
    32   14   15 ar
    33   14   48 1
    34   15   16 1
    35   16   49 1
    36   16   50 1
    37   17   18 2
    38   17   19 am
    39   19   20 1
    40   19   51 1
    41   20   21 1
    42   20   52 1
    43   20   53 1
    44   21   22 1
    45   21   54 1
    46   21   55 1
    47   22   23 1
    48   22   56 1
    49   22   57 1
    50   23   24 1
    51   23   58 1
    52   23   77 1
    53   24   25 1
    54   24   59 1
    55   24   60 1
    56   25   26 1
    57   25   61 1
    58   25   62 1
    59   26   27 1
    60   26   63 1
    61   26   64 1
    62   27   28 1
    63   27   65 1
    64   27   66 1
    65   28   29 1
    66   28   67 1
    67   28   78 1
    68   29   30 1
    69   29   68 1
    70   29   69 1
    71   30   31 1
    72   30   70 1
    73   30   71 1
    74   31   32 1
    75   31   72 1
    76   31   73 1
    77   32   74 1
    78   32   75 1
    79   32   76 1
@<TRIPOS>MOLECULE
CHEMBL192321
   77    78     0     0     0
SMALL
USER_CHARGES

@<TRIPOS>ATOM
      1 C1         -4.4076   -4.7226    0.0849 C.3       1 <0>        -0.1555
      2 C2         -3.0133   -5.2058   -0.3193 C.3       1 <0>        -0.1070
      3 C3         -2.2313   -4.0459   -0.9389 C.3       1 <0>        -0.1407
      4 C4         -0.8580   -4.5218   -1.3371 C.2       1 <0>         0.5108
      5 O1         -0.5364   -5.6752   -1.1443 O.2       1 <0>        -0.5217
      6 N1          0.0128   -3.6657   -1.9075 N.am      1 <0>        -0.7253
      7 C5          1.3826   -4.0978   -2.1955 C.3       1 <0>         0.1696
      8 C6          2.1908   -2.9178   -2.7479 C.3       1 <0>        -0.1176
      9 C7          1.3904   -2.2721   -3.8771 C.3       1 <0>        -0.0763
     10 C8          0.9496   -3.3110   -4.8748 C.ar      1 <0>        -0.0901
     11 C9          0.5522   -2.8730   -6.1317 C.ar      1 <0>        -0.1156
     12 C10         0.1323   -3.7743   -7.0877 C.ar      1 <0>        -0.1179
     13 C11         0.1056   -5.1250   -6.7931 C.ar      1 <0>        -0.1127
     14 C12         0.5020   -5.5621   -5.5464 C.ar      1 <0>        -0.1171
     15 C13         0.9287   -4.6563   -4.5835 C.ar      1 <0>        -0.0705
     16 C14         1.3624   -5.2036   -3.2488 C.3       1 <0>        -0.0811
     17 C15         2.0288   -4.6102   -0.9342 C.2       1 <0>         0.5337
     18 O2          2.7998   -5.5451   -0.9844 O.2       1 <0>        -0.5126
     19 N2          1.7499   -4.0296    0.2497 N.am      1 <0>        -0.7335
     20 C16         2.2907   -4.5950    1.4883 C.3       1 <0>         0.1241
     21 C17         1.8269   -3.7529    2.6785 C.3       1 <0>        -0.1634
     22 C18         2.3917   -4.3434    3.9720 C.3       1 <0>        -0.0055
     23 N3          1.9463   -3.5348    5.1147 N.4       1 <0>        -0.5092
     24 C19         2.4886   -4.1018    6.3567 C.3       1 <0>        -0.0100
     25 C20         2.0248   -3.2596    7.5469 C.3       1 <0>        -0.1489
     26 C21         2.5896   -3.8501    8.8404 C.3       1 <0>        -0.1498
     27 C22         2.1257   -3.0080   10.0306 C.3       1 <0>        -0.0094
     28 N4          2.6680   -3.5749   11.2726 N.4       1 <0>        -0.5095
     29 C23         2.2227   -2.7663   12.4153 C.3       1 <0>        -0.0074
     30 C24         2.7874   -3.3568   13.7088 C.3       1 <0>        -0.1523
     31 C25         2.3236   -2.5147   14.8990 C.3       1 <0>         0.0630
     32 N5          2.8659   -3.0816   16.1410 N.3       1 <0>        -0.8529
     33 H1         -4.3159   -3.9165    0.8128 H         1 <0>         0.0514
     34 H2         -4.9355   -4.3582   -0.7963 H         1 <0>         0.0593
     35 H3         -4.9647   -5.5490    0.5263 H         1 <0>         0.0605
     36 H4         -2.4854   -5.5703    0.5619 H         1 <0>         0.0631
     37 H5         -3.1051   -6.0120   -1.0472 H         1 <0>         0.0726
     38 H6         -2.7593   -3.6815   -1.8202 H         1 <0>         0.0984
     39 H7         -2.1396   -3.2397   -0.2111 H         1 <0>         0.0901
     40 H8         -0.2675   -2.7635   -2.1273 H         1 <0>         0.4062
     41 H9          2.3632   -2.1884   -1.9565 H         1 <0>         0.0776
     42 H10         3.1459   -3.2752   -3.1328 H         1 <0>         0.0946
     43 H11         0.5123   -1.7797   -3.4593 H         1 <0>         0.0752
     44 H12         2.0118   -1.5314   -4.3803 H         1 <0>         0.0892
     45 H13         0.5719   -1.8181   -6.3623 H         1 <0>         0.1226
     46 H14        -0.1748   -3.4263   -8.0628 H         1 <0>         0.1253
     47 H15        -0.2242   -5.8354   -7.5367 H         1 <0>         0.1254
     48 H16         0.4806   -6.6172   -5.3169 H         1 <0>         0.1214
     49 H17         2.3615   -5.6292   -3.3424 H         1 <0>         0.0977
     50 H18         0.6678   -5.9838   -2.9375 H         1 <0>         0.0986
     51 H19         1.1912   -3.2374    0.2817 H         1 <0>         0.4004
     52 H20         1.9344   -5.6184    1.6064 H         1 <0>         0.0786
     53 H21         3.3798   -4.5924    1.4437 H         1 <0>         0.0789
     54 H22         2.1832   -2.7296    2.5603 H         1 <0>         0.0960
     55 H23         0.7378   -3.7556    2.7230 H         1 <0>         0.0954
     56 H24         2.0354   -5.3667    4.0902 H         1 <0>         0.1392
     57 H25         3.4808   -4.3407    3.9275 H         1 <0>         0.1394
     58 H26         2.2762   -2.5875    5.0053 H         1 <0>         0.4308
     59 H27         2.1323   -5.1251    6.4749 H         1 <0>         0.1373
     60 H28         3.5777   -4.0991    6.3122 H         1 <0>         0.1374
     61 H29         2.3811   -2.2363    7.4287 H         1 <0>         0.0999
     62 H30         0.9357   -3.2623    7.5914 H         1 <0>         0.0997
     63 H31         2.2333   -4.8734    8.9586 H         1 <0>         0.1001
     64 H32         3.6786   -3.8474    8.7959 H         1 <0>         0.1005
     65 H33         2.4820   -1.9846    9.9124 H         1 <0>         0.1363
     66 H34         1.0366   -3.0106   10.0751 H         1 <0>         0.1357
     67 H35         2.3382   -4.5222   11.3819 H         1 <0>         0.4307
     68 H36         2.5789   -1.7430   12.2971 H         1 <0>         0.1358
     69 H37         1.1336   -2.7690   12.4598 H         1 <0>         0.1335
     70 H38         2.4311   -4.3802   13.8270 H         1 <0>         0.0870
     71 H39         3.8765   -3.3542   13.6643 H         1 <0>         0.0979
     72 H40         2.6799   -1.4914   14.7809 H         1 <0>         0.0833
     73 H41         1.2345   -2.5174   14.9436 H         1 <0>         0.0383
     74 H42         2.5735   -2.5427   16.9423 H         1 <0>         0.3609
     75 H43         2.6027   -4.0505   16.2413 H         1 <0>         0.3469
     76 H44         0.9382   -3.5373    5.1560 H         1 <0>         0.4309
     77 H45         3.6761   -3.5724   11.2313 H         1 <0>         0.4317
@<TRIPOS>BOND
     1    1    2 1
     2    1   33 1
     3    1   34 1
     4    1   35 1
     5    2    3 1
     6    2   36 1
     7    2   37 1
     8    3    4 1
     9    3   38 1
    10    3   39 1
    11    4    5 2
    12    4    6 am
    13    6    7 1
    14    6   40 1
    15    7   16 1
    16    7    8 1
    17    7   17 1
    18    8    9 1
    19    8   41 1
    20    8   42 1
    21    9   10 1
    22    9   43 1
    23    9   44 1
    24   10   15 ar
    25   10   11 ar
    26   11   12 ar
    27   11   45 1
    28   12   13 ar
    29   12   46 1
    30   13   14 ar
    31   13   47 1
    32   14   15 ar
    33   14   48 1
    34   15   16 1
    35   16   49 1
    36   16   50 1
    37   17   18 2
    38   17   19 am
    39   19   20 1
    40   19   51 1
    41   20   21 1
    42   20   52 1
    43   20   53 1
    44   21   22 1
    45   21   54 1
    46   21   55 1
    47   22   23 1
    48   22   56 1
    49   22   57 1
    50   23   24 1
    51   23   58 1
    52   23   76 1
    53   24   25 1
    54   24   59 1
    55   24   60 1
    56   25   26 1
    57   25   61 1
    58   25   62 1
    59   26   27 1
    60   26   63 1
    61   26   64 1
    62   27   28 1
    63   27   65 1
    64   27   66 1
    65   28   29 1
    66   28   67 1
    67   28   77 1
    68   29   30 1
    69   29   68 1
    70   29   69 1
    71   30   31 1
    72   30   70 1
    73   30   71 1
    74   31   32 1
    75   31   72 1
    76   31   73 1
    77   32   74 1
    78   32   75 1
@<TRIPOS>MOLECULE
CHEMBL192321
   78    79     0     0     0
SMALL
USER_CHARGES

@<TRIPOS>ATOM
      1 C1         -4.1453   -3.6436   -0.6449 C.3       1 <0>        -0.1561
      2 C2         -2.8515   -4.3484   -0.2322 C.3       1 <0>        -0.1069
      3 C3         -2.0204   -3.4138    0.6492 C.3       1 <0>        -0.1413
      4 C4         -0.7461   -4.1080    1.0557 C.2       1 <0>         0.5113
      5 O1         -0.5244   -5.2389    0.6777 O.2       1 <0>        -0.5222
      6 N1          0.1472   -3.4721    1.8394 N.am      1 <0>        -0.7264
      7 C5          1.3342   -4.1822    2.3221 C.3       1 <0>         0.1698
      8 C6          2.1807   -3.2428    3.1892 C.3       1 <0>        -0.1162
      9 C7          1.2672   -2.5877    4.2232 C.3       1 <0>        -0.0758
     10 C8          0.4592   -3.6296    4.9516 C.ar      1 <0>        -0.0896
     11 C9         -0.1272   -3.2668    6.1575 C.ar      1 <0>        -0.1156
     12 C10        -0.8839   -4.1738    6.8698 C.ar      1 <0>        -0.1166
     13 C11        -1.0614   -5.4545    6.3799 C.ar      1 <0>        -0.1120
     14 C12        -0.4780   -5.8174    5.1839 C.ar      1 <0>        -0.1171
     15 C13         0.2875   -4.9065    4.4668 C.ar      1 <0>        -0.0726
     16 C14         0.9084   -5.3743    3.1766 C.3       1 <0>        -0.0806
     17 C15         2.1493   -4.6637    1.1496 C.2       1 <0>         0.5347
     18 O2          2.7352   -5.7237    1.2128 O.2       1 <0>        -0.5135
     19 N2          2.2272   -3.9164    0.0307 N.am      1 <0>        -0.7333
     20 C16         3.1010   -4.3327   -1.0689 C.3       1 <0>         0.1240
     21 C17         3.0047   -3.3174   -2.2094 C.3       1 <0>        -0.1637
     22 C18         3.9173   -3.7522   -3.3578 C.3       1 <0>        -0.0054
     23 N3          3.8248   -2.7774   -4.4528 N.4       1 <0>        -0.5095
     24 C19         4.7011   -3.1949   -5.5555 C.3       1 <0>        -0.0099
     25 C20         4.6047   -2.1795   -6.6960 C.3       1 <0>        -0.1498
     26 C21         5.5174   -2.6143   -7.8444 C.3       1 <0>        -0.1503
     27 C22         5.4210   -1.5990   -8.9849 C.3       1 <0>        -0.0098
     28 N4          6.2973   -2.0165  -10.0875 N.4       1 <0>        -0.5105
     29 C23         6.2048   -1.0416  -11.1825 C.3       1 <0>        -0.0048
     30 C24         7.1174   -1.4765  -12.3309 C.3       1 <0>        -0.1882
     31 C25         7.0211   -0.4611  -13.4714 C.3       1 <0>        -0.0022
     32 N5          7.8974   -0.8786  -14.5740 N.4       1 <0>        -0.6387
     33 H1         -3.9041   -2.7381   -1.2017 H         1 <0>         0.0520
     34 H2         -4.7373   -4.3094   -1.2728 H         1 <0>         0.0609
     35 H3         -4.7161   -3.3812    0.2459 H         1 <0>         0.0597
     36 H4         -3.0927   -5.2539    0.3247 H         1 <0>         0.0725
     37 H5         -2.2807   -4.6108   -1.1229 H         1 <0>         0.0629
     38 H6         -1.7792   -2.5084    0.0924 H         1 <0>         0.0902
     39 H7         -2.5913   -3.1514    1.5399 H         1 <0>         0.1000
     40 H8          0.0042   -2.5444    2.0837 H         1 <0>         0.4058
     41 H9          2.9592   -3.8130    3.6961 H         1 <0>         0.0945
     42 H10         2.6357   -2.4755    2.5629 H         1 <0>         0.0770
     43 H11         1.8743   -2.0367    4.9414 H         1 <0>         0.0890
     44 H12         0.5916   -1.8964    3.7193 H         1 <0>         0.0752
     45 H13         0.0108   -2.2665    6.5406 H         1 <0>         0.1228
     46 H14        -1.3359   -3.8846    7.8071 H         1 <0>         0.1261
     47 H15        -1.6547   -6.1684    6.9320 H         1 <0>         0.1261
     48 H16        -0.6174   -6.8178    4.8018 H         1 <0>         0.1214
     49 H17         0.1827   -5.9714    2.6243 H         1 <0>         0.0966
     50 H18         1.7818   -5.9870    3.3995 H         1 <0>         0.0987
     51 H19         1.7046   -3.1028   -0.0465 H         1 <0>         0.4004
     52 H20         4.1307   -4.3849   -0.7150 H         1 <0>         0.0776
     53 H21         2.7903   -5.3137   -1.4285 H         1 <0>         0.0789
     54 H22         1.9751   -3.2652   -2.5634 H         1 <0>         0.0960
     55 H23         3.3154   -2.3365   -1.8498 H         1 <0>         0.0961
     56 H24         4.9470   -3.8044   -3.0039 H         1 <0>         0.1398
     57 H25         3.6066   -4.7331   -3.7174 H         1 <0>         0.1398
     58 H26         2.8717   -2.7290   -4.7805 H         1 <0>         0.4316
     59 H27         5.7307   -3.2470   -5.2015 H         1 <0>         0.1375
     60 H28         4.3904   -4.1758   -5.9151 H         1 <0>         0.1376
     61 H29         3.5751   -2.1273   -7.0499 H         1 <0>         0.1009
     62 H30         4.9155   -1.1986   -6.3364 H         1 <0>         0.1009
     63 H31         6.5470   -2.6665   -7.4904 H         1 <0>         0.1018
     64 H32         5.2067   -3.5953   -8.2040 H         1 <0>         0.1019
     65 H33         4.3914   -1.5468   -9.3388 H         1 <0>         0.1402
     66 H34         5.7318   -0.6181   -8.6253 H         1 <0>         0.1402
     67 H35         7.2504   -2.0648   -9.7598 H         1 <0>         0.4345
     68 H36         5.1752   -0.9894  -11.5365 H         1 <0>         0.1456
     69 H37         6.5155   -0.0607  -10.8229 H         1 <0>         0.1456
     70 H38         8.1471   -1.5287  -11.9770 H         1 <0>         0.1137
     71 H39         6.8067   -2.4574  -12.6905 H         1 <0>         0.1138
     72 H40         5.9915   -0.4089  -13.8254 H         1 <0>         0.1458
     73 H41         7.3318    0.5198  -13.1118 H         1 <0>         0.1458
     74 H42         8.8505   -0.9269  -14.2464 H         1 <0>         0.4411
     75 H43         7.6097   -1.7867  -14.9069 H         1 <0>         0.4411
     76 H44         7.8338   -0.2090  -15.3262 H         1 <0>         0.4534
     77 H45         4.1125   -1.8693   -4.1200 H         1 <0>         0.4312
     78 H46         6.0097   -2.9245  -10.4204 H         1 <0>         0.4346
@<TRIPOS>BOND
     1    1    2 1
     2    1   33 1
     3    1   34 1
     4    1   35 1
     5    2    3 1
     6    2   36 1
     7    2   37 1
     8    3    4 1
     9    3   38 1
    10    3   39 1
    11    4    5 2
    12    4    6 am
    13    6    7 1
    14    6   40 1
    15    7   16 1
    16    7    8 1
    17    7   17 1
    18    8    9 1
    19    8   41 1
    20    8   42 1
    21    9   10 1
    22    9   43 1
    23    9   44 1
    24   10   15 ar
    25   10   11 ar
    26   11   12 ar
    27   11   45 1
    28   12   13 ar
    29   12   46 1
    30   13   14 ar
    31   13   47 1
    32   14   15 ar
    33   14   48 1
    34   15   16 1
    35   16   49 1
    36   16   50 1
    37   17   18 2
    38   17   19 am
    39   19   20 1
    40   19   51 1
    41   20   21 1
    42   20   52 1
    43   20   53 1
    44   21   22 1
    45   21   54 1
    46   21   55 1
    47   22   23 1
    48   22   56 1
    49   22   57 1
    50   23   24 1
    51   23   58 1
    52   23   77 1
    53   24   25 1
    54   24   59 1
    55   24   60 1
    56   25   26 1
    57   25   61 1
    58   25   62 1
    59   26   27 1
    60   26   63 1
    61   26   64 1
    62   27   28 1
    63   27   65 1
    64   27   66 1
    65   28   29 1
    66   28   67 1
    67   28   78 1
    68   29   30 1
    69   29   68 1
    70   29   69 1
    71   30   31 1
    72   30   70 1
    73   30   71 1
    74   31   32 1
    75   31   72 1
    76   31   73 1
    77   32   74 1
    78   32   75 1
    79   32   76 1
@<TRIPOS>MOLECULE
CHEMBL192321
   77    78     0     0     0
SMALL
USER_CHARGES

@<TRIPOS>ATOM
      1 C1          1.6059   -3.5908    3.9299 C.3       1 <0>        -0.1559
      2 C2          1.3344   -4.3072    2.6056 C.3       1 <0>        -0.1071
      3 C3          1.6587   -3.3683    1.4419 C.3       1 <0>        -0.1411
      4 C4          1.3913   -4.0740    0.1375 C.2       1 <0>         0.5112
      5 O1          0.9816   -5.2155    0.1385 O.2       1 <0>        -0.5217
      6 N1          1.6074   -3.4366   -1.0302 N.am      1 <0>        -0.7266
      7 C5          1.4500   -4.1552   -2.2970 C.3       1 <0>         0.1698
      8 C6          1.7542   -3.2120   -3.4669 C.3       1 <0>        -0.1165
      9 C7          3.0895   -2.5222   -3.1950 C.3       1 <0>        -0.0760
     10 C8          4.1501   -3.5366   -2.8558 C.ar      1 <0>        -0.0888
     11 C9          5.4781   -3.1407   -2.9521 C.ar      1 <0>        -0.1158
     12 C10         6.4957   -4.0213   -2.6497 C.ar      1 <0>        -0.1175
     13 C11         6.1925   -5.3087   -2.2465 C.ar      1 <0>        -0.1128
     14 C12         4.8745   -5.7044   -2.1526 C.ar      1 <0>        -0.1171
     15 C13         3.8482   -4.8202   -2.4602 C.ar      1 <0>        -0.0715
     16 C14         2.4326   -5.3232   -2.3512 C.3       1 <0>        -0.0809
     17 C15         0.0396   -4.6727   -2.4150 C.2       1 <0>         0.5341
     18 O2         -0.1718   -5.7402   -2.9504 O.2       1 <0>        -0.5144
     19 N2         -0.9868   -3.9492   -1.9257 N.am      1 <0>        -0.7325
     20 C16        -2.3651   -4.4010   -2.1313 C.3       1 <0>         0.1239
     21 C17        -3.3299   -3.4073   -1.4812 C.3       1 <0>        -0.1636
     22 C18        -4.7694   -3.8792   -1.6959 C.3       1 <0>        -0.0053
     23 N3         -5.6957   -2.9251   -1.0717 N.4       1 <0>        -0.5092
     24 C19        -7.0778   -3.3781   -1.2779 C.3       1 <0>        -0.0099
     25 C20        -8.0426   -2.3844   -0.6278 C.3       1 <0>        -0.1489
     26 C21        -9.4821   -2.8563   -0.8425 C.3       1 <0>        -0.1498
     27 C22       -10.4469   -1.8626   -0.1924 C.3       1 <0>        -0.0093
     28 N4        -11.8290   -2.3156   -0.3986 N.4       1 <0>        -0.5095
     29 C23       -12.7553   -1.3615    0.2256 C.3       1 <0>        -0.0074
     30 C24       -14.1948   -1.8334    0.0108 C.3       1 <0>        -0.1522
     31 C25       -15.1596   -0.8397    0.6609 C.3       1 <0>         0.0630
     32 N5        -16.5417   -1.2927    0.4548 N.3       1 <0>        -0.8529
     33 H1          2.6558   -3.3017    3.9781 H         1 <0>         0.0588
     34 H2          0.9805   -2.7005    3.9963 H         1 <0>         0.0526
     35 H3          1.3748   -4.2597    4.7590 H         1 <0>         0.0608
     36 H4          1.9597   -5.1975    2.5393 H         1 <0>         0.0720
     37 H5          0.2845   -4.5963    2.5575 H         1 <0>         0.0639
     38 H6          1.0334   -2.4780    1.5083 H         1 <0>         0.0907
     39 H7          2.7086   -3.0793    1.4901 H         1 <0>         0.0993
     40 H8          1.8671   -2.5020   -1.0317 H         1 <0>         0.4057
     41 H9          1.8183   -3.7840   -4.3925 H         1 <0>         0.0943
     42 H10         0.9653   -2.4646   -3.5505 H         1 <0>         0.0777
     43 H11         3.3942   -1.9664   -4.0818 H         1 <0>         0.0888
     44 H12         2.9735   -1.8307   -2.3604 H         1 <0>         0.0755
     45 H13         5.7157   -2.1352   -3.2666 H         1 <0>         0.1226
     46 H14         7.5259   -3.7065   -2.7279 H         1 <0>         0.1254
     47 H15         6.9848   -6.0021   -2.0063 H         1 <0>         0.1254
     48 H16         4.6384   -6.7100   -1.8374 H         1 <0>         0.1214
     49 H17         2.3320   -5.9198   -1.4446 H         1 <0>         0.0968
     50 H18         2.2045   -5.9449   -3.2170 H         1 <0>         0.0988
     51 H19        -0.8129   -3.1293   -1.4373 H         1 <0>         0.4003
     52 H20        -2.5719   -4.4622   -3.1997 H         1 <0>         0.0778
     53 H21        -2.4966   -5.3840   -1.6789 H         1 <0>         0.0792
     54 H22        -3.1232   -3.3462   -0.4127 H         1 <0>         0.0956
     55 H23        -3.1985   -2.4243   -1.9335 H         1 <0>         0.0958
     56 H24        -4.9762   -3.9403   -2.7644 H         1 <0>         0.1392
     57 H25        -4.9009   -4.8621   -1.2436 H         1 <0>         0.1393
     58 H26        -5.5044   -2.8685   -0.0827 H         1 <0>         0.4312
     59 H27        -7.2846   -3.4393   -2.3464 H         1 <0>         0.1372
     60 H28        -7.2093   -4.3611   -0.8256 H         1 <0>         0.1374
     61 H29        -7.8359   -2.3233    0.4407 H         1 <0>         0.1000
     62 H30        -7.9112   -1.4015   -1.0801 H         1 <0>         0.0996
     63 H31        -9.6889   -2.9174   -1.9110 H         1 <0>         0.1000
     64 H32        -9.6136   -3.8392   -0.3902 H         1 <0>         0.1005
     65 H33       -10.2401   -1.8014    0.8760 H         1 <0>         0.1363
     66 H34       -10.3154   -0.8796   -0.6448 H         1 <0>         0.1356
     67 H35       -12.0204   -2.3722   -1.3877 H         1 <0>         0.4306
     68 H36       -12.5486   -1.3004    1.2940 H         1 <0>         0.1358
     69 H37       -12.6239   -0.3786   -0.2268 H         1 <0>         0.1334
     70 H38       -14.4015   -1.8945   -1.0576 H         1 <0>         0.0869
     71 H39       -14.3262   -2.8163    0.4632 H         1 <0>         0.0979
     72 H40       -14.9528   -0.7785    1.7294 H         1 <0>         0.0834
     73 H41       -15.0281    0.1433    0.2086 H         1 <0>         0.0383
     74 H42       -17.1986   -0.6526    0.8753 H         1 <0>         0.3609
     75 H43       -16.7381   -1.4194   -0.5268 H         1 <0>         0.3469
     76 H44        -5.5741   -2.0152   -1.4904 H         1 <0>         0.4307
     77 H45       -11.9507   -3.2255    0.0201 H         1 <0>         0.4318
@<TRIPOS>BOND
     1    1    2 1
     2    1   33 1
     3    1   34 1
     4    1   35 1
     5    2    3 1
     6    2   36 1
     7    2   37 1
     8    3    4 1
     9    3   38 1
    10    3   39 1
    11    4    5 2
    12    4    6 am
    13    6    7 1
    14    6   40 1
    15    7   16 1
    16    7    8 1
    17    7   17 1
    18    8    9 1
    19    8   41 1
    20    8   42 1
    21    9   10 1
    22    9   43 1
    23    9   44 1
    24   10   15 ar
    25   10   11 ar
    26   11   12 ar
    27   11   45 1
    28   12   13 ar
    29   12   46 1
    30   13   14 ar
    31   13   47 1
    32   14   15 ar
    33   14   48 1
    34   15   16 1
    35   16   49 1
    36   16   50 1
    37   17   18 2
    38   17   19 am
    39   19   20 1
    40   19   51 1
    41   20   21 1
    42   20   52 1
    43   20   53 1
    44   21   22 1
    45   21   54 1
    46   21   55 1
    47   22   23 1
    48   22   56 1
    49   22   57 1
    50   23   24 1
    51   23   58 1
    52   23   76 1
    53   24   25 1
    54   24   59 1
    55   24   60 1
    56   25   26 1
    57   25   61 1
    58   25   62 1
    59   26   27 1
    60   26   63 1
    61   26   64 1
    62   27   28 1
    63   27   65 1
    64   27   66 1
    65   28   29 1
    66   28   67 1
    67   28   77 1
    68   29   30 1
    69   29   68 1
    70   29   69 1
    71   30   31 1
    72   30   70 1
    73   30   71 1
    74   31   32 1
    75   31   72 1
    76   31   73 1
    77   32   74 1
    78   32   75 1
@<TRIPOS>MOLECULE
CHEMBL301759
   58    61     0     0     0
SMALL
USER_CHARGES

@<TRIPOS>ATOM
      1 C1         -0.2638    1.4444    0.0360 C.3       1 <0>        -0.1857
      2 C2         -0.0341   -0.0678   -0.0010 C.3       1 <0>        -0.0158
      3 N1          0.8228   -0.4607    1.1256 N.4       1 <0>        -0.3831
      4 C3          0.1113   -0.2220    2.3885 C.3       1 <0>        -0.0149
      5 C4          1.0526   -0.4946    3.5635 C.3       1 <0>        -0.1893
      6 C5          1.1560   -1.8870    1.0133 C.3       1 <0>         0.0514
      7 C6          1.9915   -2.1121   -0.2205 C.ar      1 <0>         0.0626
      8 C7          3.3717   -2.1398   -0.1143 C.ar      1 <0>        -0.1401
      9 C8          4.1390   -2.3476   -1.2517 C.ar      1 <0>        -0.0638
     10 C9          3.4922   -2.5214   -2.4628 C.ar      1 <0>        -0.1127
     11 C10         2.0962   -2.4817   -2.4979 C.ar      1 <0>         0.1591
     12 N2          1.3988   -2.2848   -1.3827 N.ar      1 <0>        -0.4609
     13 C11         1.3915   -2.6642   -3.7783 C.2       1 <0>        -0.0412
     14 C12         0.0456   -2.6268   -3.8176 C.2       1 <0>        -0.0895
     15 C13        -0.6557   -2.8084   -5.0918 C.2       1 <0>         0.4221
     16 N3          0.0558   -3.0107   -6.1752 N.2       1 <0>        -0.4961
     17 C14        -0.5226   -3.1853   -7.3786 C.ar      1 <0>         0.1409
     18 C15         0.2409   -3.4012   -8.5308 C.ar      1 <0>        -0.0727
     19 C16        -0.3799   -3.5748   -9.7349 C.ar      1 <0>        -0.1030
     20 C17        -1.7668   -3.5400   -9.8363 C.ar      1 <0>         0.0954
     21 C18        -2.5468   -3.3284   -8.7173 C.ar      1 <0>        -0.0779
     22 C19        -1.9330   -3.1500   -7.4790 C.ar      1 <0>        -0.1639
     23 C20        -2.7127   -2.9222   -6.2540 C.2       1 <0>         0.5553
     24 O1         -3.9291   -2.8819   -6.2782 O.2       1 <0>        -0.4818
     25 N4         -2.0282   -2.7647   -5.0971 N.am      1 <0>        -0.4990
     26 C21        -2.7228   -2.5502   -3.9004 C.ar      1 <0>         0.1135
     27 C22        -3.0345   -1.2579   -3.4987 C.ar      1 <0>        -0.0861
     28 C23        -3.7196   -1.0495   -2.3179 C.ar      1 <0>        -0.1090
     29 C24        -4.0957   -2.1259   -1.5350 C.ar      1 <0>        -0.0911
     30 C25        -3.7874   -3.4141   -1.9312 C.ar      1 <0>        -0.1018
     31 C26        -3.1068   -3.6303   -3.1149 C.ar      1 <0>        -0.0185
     32 Cl1        -2.7261   -5.2483   -3.6157 Cl        1 <0>        -0.0434
     33 F1         -2.3552   -3.7142  -11.0399 F         1 <0>        -0.1256
     34 H1          0.6973    1.9571    0.0736 H         1 <0>         0.0772
     35 H2         -0.8049    1.7517   -0.8589 H         1 <0>         0.1051
     36 H3         -0.8476    1.7016    0.9199 H         1 <0>         0.0810
     37 H4         -0.9919   -0.5828    0.0741 H         1 <0>         0.1309
     38 H5          0.4515   -0.3387   -0.9385 H         1 <0>         0.1341
     39 H6         -0.2255    0.8140    2.4255 H         1 <0>         0.1340
     40 H7         -0.7503   -0.8867    2.4513 H         1 <0>         0.1315
     41 H8          1.9645    0.0898    3.4417 H         1 <0>         0.0800
     42 H9          0.5619   -0.2124    4.4950 H         1 <0>         0.1074
     43 H10         1.3017   -1.5554    3.5909 H         1 <0>         0.0809
     44 H11         1.7170   -2.1995    1.8940 H         1 <0>         0.1464
     45 H12         0.2378   -2.4701    0.9417 H         1 <0>         0.1450
     46 H13         3.8471   -2.0006    0.8454 H         1 <0>         0.1464
     47 H14         5.2171   -2.3729   -1.1931 H         1 <0>         0.1537
     48 H15         4.0585   -2.6850   -3.3678 H         1 <0>         0.1559
     49 H16         1.9539   -2.8280   -4.6857 H         1 <0>         0.1607
     50 H17        -0.5168   -2.4630   -2.9103 H         1 <0>         0.1482
     51 H18         1.3187   -3.4302   -8.4683 H         1 <0>         0.1545
     52 H19         0.2145   -3.7411  -10.6211 H         1 <0>         0.1534
     53 H20        -3.6233   -3.3015   -8.8007 H         1 <0>         0.1545
     54 H21        -2.7410   -0.4166   -4.1090 H         1 <0>         0.1380
     55 H22        -3.9618   -0.0446   -2.0051 H         1 <0>         0.1405
     56 H23        -4.6311   -1.9597   -0.6119 H         1 <0>         0.1417
     57 H24        -4.0824   -4.2525   -1.3177 H         1 <0>         0.1453
     58 H25         1.6712    0.0852    1.1092 H         1 <0>         0.4206
@<TRIPOS>BOND
     1    1    2 1
     2    1   34 1
     3    1   35 1
     4    1   36 1
     5    2    3 1
     6    2   37 1
     7    2   38 1
     8    3    4 1
     9    3    6 1
    10    3   58 1
    11    4    5 1
    12    4   39 1
    13    4   40 1
    14    5   41 1
    15    5   42 1
    16    5   43 1
    17    6    7 1
    18    6   44 1
    19    6   45 1
    20    7   12 ar
    21    7    8 ar
    22    8    9 ar
    23    8   46 1
    24    9   10 ar
    25    9   47 1
    26   10   11 ar
    27   10   48 1
    28   11   12 ar
    29   11   13 1
    30   13   14 2
    31   13   49 1
    32   14   15 1
    33   14   50 1
    34   15   25 1
    35   15   16 2
    36   16   17 1
    37   17   22 ar
    38   17   18 ar
    39   18   19 ar
    40   18   51 1
    41   19   20 ar
    42   19   52 1
    43   20   21 ar
    44   20   33 1
    45   21   22 ar
    46   21   53 1
    47   22   23 1
    48   23   24 2
    49   23   25 am
    50   25   26 1
    51   26   31 ar
    52   26   27 ar
    53   27   28 ar
    54   27   54 1
    55   28   29 ar
    56   28   55 1
    57   29   30 ar
    58   29   56 1
    59   30   31 ar
    60   30   57 1
    61   31   32 1
@<TRIPOS>MOLECULE
CHEMBL192014
   78    79     0     0     0
SMALL
USER_CHARGES

@<TRIPOS>ATOM
      1 C1         -0.0187    1.5258    0.0104 C.3       1 <0>        -0.1559
      2 C2          0.0021   -0.0041    0.0020 C.3       1 <0>        -0.1064
      3 C3          0.7421   -0.5109    1.2415 C.3       1 <0>        -0.1468
      4 C4          0.7625   -2.0177    1.2333 C.2       1 <0>         0.5266
      5 O1          0.2370   -2.6263    0.3253 O.2       1 <0>        -0.5152
      6 N1          1.3648   -2.6890    2.2348 N.am      1 <0>        -0.7201
      7 C5          1.3847   -4.1539    2.2267 C.3       1 <0>         0.1470
      8 H1          1.9119   -4.5150    3.1098 H         1 <0>         0.1063
      9 C6         -0.0507   -4.6835    2.2376 C.3       1 <0>        -0.0524
     10 C7         -0.7175   -4.3009    3.5338 C.2       1 <0>        -0.1751
     11 C8         -0.8031   -5.0554    4.6407 C.2       1 <0>         0.0549
     12 N2         -1.4802   -4.3765    5.6169 N.pl3     1 <0>        -0.5933
     13 H2         -1.6672   -4.7176    6.5055 H         1 <0>         0.4180
     14 C9         -1.8564   -3.1369    5.1501 C.ar      1 <0>         0.0944
     15 C10        -1.3896   -3.0327    3.8268 C.ar      1 <0>        -0.0944
     16 C11        -1.6235   -1.8669    3.0955 C.ar      1 <0>        -0.0797
     17 C12        -2.3025   -0.8299    3.6709 C.ar      1 <0>        -0.1405
     18 C13        -2.7614   -0.9261    4.9772 C.ar      1 <0>        -0.0926
     19 C14        -2.5497   -2.0712    5.7140 C.ar      1 <0>        -0.1285
     20 C15         2.0901   -4.6399    0.9868 C.2       1 <0>         0.5037
     21 O2          2.2102   -3.9045    0.0299 O.2       1 <0>        -0.4899
     22 N3          2.5873   -5.8917    0.9414 N.am      1 <0>        -0.7433
     23 C16         3.2730   -6.3642   -0.2639 C.3       1 <0>         0.1253
     24 C17         3.7365   -7.8072   -0.0545 C.3       1 <0>        -0.1636
     25 C18         4.4526   -8.3006   -1.3133 C.3       1 <0>        -0.0060
     26 N4          4.8976   -9.6861   -1.1123 N.4       1 <0>        -0.5095
     27 C19         5.5852  -10.1598   -2.3209 C.3       1 <0>        -0.0099
     28 C20         6.0486  -11.6028   -2.1115 C.3       1 <0>        -0.1498
     29 C21         6.7648  -12.0962   -3.3703 C.3       1 <0>        -0.1503
     30 C22         7.2282  -13.5392   -3.1609 C.3       1 <0>        -0.0098
     31 N5          7.9158  -14.0130   -4.3695 N.4       1 <0>        -0.5106
     32 C23         8.3608  -15.3985   -4.1684 C.3       1 <0>        -0.0047
     33 C24         9.0769  -15.8919   -5.4272 C.3       1 <0>        -0.1882
     34 C25         9.5404  -17.3349   -5.2178 C.3       1 <0>        -0.0022
     35 N6         10.2280  -17.8086   -6.4264 N.4       1 <0>        -0.6387
     36 H3          1.0039    1.9031    0.0027 H         1 <0>         0.0544
     37 H4         -0.5459    1.8868   -0.8726 H         1 <0>         0.0600
     38 H5         -0.5289    1.8773    0.9072 H         1 <0>         0.0568
     39 H6         -1.0205   -0.3814    0.0098 H         1 <0>         0.0685
     40 H7          0.5123   -0.3556   -0.8948 H         1 <0>         0.0677
     41 H8          1.7647   -0.1336    1.2338 H         1 <0>         0.0911
     42 H9          0.2319   -0.1594    2.1383 H         1 <0>         0.0962
     43 H10         1.7851   -2.2023    2.9609 H         1 <0>         0.4067
     44 H11        -0.6036   -4.2517    1.4033 H         1 <0>         0.1012
     45 H12        -0.0381   -5.7692    2.1421 H         1 <0>         0.0736
     46 H13        -0.3979   -6.0510    4.7452 H         1 <0>         0.1653
     47 H14        -1.2687   -1.7846    2.0788 H         1 <0>         0.1210
     48 H15        -2.4832    0.0719    3.1048 H         1 <0>         0.1241
     49 H16        -3.2959   -0.0978    5.4184 H         1 <0>         0.1288
     50 H17        -2.9096   -2.1359    6.7302 H         1 <0>         0.1219
     51 H18         2.4912   -6.4799    1.7067 H         1 <0>         0.4010
     52 H19         2.5889   -6.3217   -1.1114 H         1 <0>         0.0773
     53 H20         4.1372   -5.7302   -0.4624 H         1 <0>         0.0756
     54 H21         4.4206   -7.8497    0.7930 H         1 <0>         0.0963
     55 H22         2.8723   -8.4412    0.1439 H         1 <0>         0.0970
     56 H23         3.7685   -8.2581   -2.1608 H         1 <0>         0.1395
     57 H24         5.3168   -7.6666   -1.5118 H         1 <0>         0.1390
     58 H25         5.5309   -9.7254   -0.3278 H         1 <0>         0.4312
     59 H26         4.9011  -10.1173   -3.1684 H         1 <0>         0.1375
     60 H27         6.4494   -9.5258   -2.5194 H         1 <0>         0.1373
     61 H28         6.7328  -11.6453   -1.2640 H         1 <0>         0.1008
     62 H29         5.1845  -12.2368   -1.9130 H         1 <0>         0.1009
     63 H30         6.0806  -12.0537   -4.2178 H         1 <0>         0.1019
     64 H31         7.6289  -11.4623   -3.5688 H         1 <0>         0.1017
     65 H32         7.9124  -13.5818   -2.3134 H         1 <0>         0.1401
     66 H33         6.3641  -14.1732   -2.9624 H         1 <0>         0.1402
     67 H34         7.2825  -13.9736   -5.1540 H         1 <0>         0.4346
     68 H35         9.0450  -15.4410   -3.3210 H         1 <0>         0.1456
     69 H36         7.4966  -16.0324   -3.9700 H         1 <0>         0.1456
     70 H37         8.3928  -15.8494   -6.2747 H         1 <0>         0.1137
     71 H38         9.9411  -15.2579   -5.6257 H         1 <0>         0.1137
     72 H39        10.2245  -17.3774   -4.3703 H         1 <0>         0.1457
     73 H40         8.6762  -17.9689   -5.0193 H         1 <0>         0.1458
     74 H41         9.5947  -17.7693   -7.2110 H         1 <0>         0.4411
     75 H42        11.0279  -17.2218   -6.6102 H         1 <0>         0.4411
     76 H43        10.5336  -18.7603   -6.2883 H         1 <0>         0.4533
     77 H44         4.0977  -10.2729   -0.9285 H         1 <0>         0.4316
     78 H45         8.7158  -13.4261   -4.5532 H         1 <0>         0.4345
@<TRIPOS>BOND
     1    1    2 1
     2    1   36 1
     3    1   37 1
     4    1   38 1
     5    2    3 1
     6    2   39 1
     7    2   40 1
     8    3    4 1
     9    3   41 1
    10    3   42 1
    11    4    5 2
    12    4    6 am
    13    6    7 1
    14    6   43 1
    15    7    8 1
    16    7    9 1
    17    7   20 1
    18    9   10 1
    19    9   44 1
    20    9   45 1
    21   10   15 1
    22   10   11 2
    23   11   12 1
    24   11   46 1
    25   12   13 1
    26   12   14 1
    27   14   19 ar
    28   14   15 ar
    29   15   16 ar
    30   16   17 ar
    31   16   47 1
    32   17   18 ar
    33   17   48 1
    34   18   19 ar
    35   18   49 1
    36   19   50 1
    37   20   21 2
    38   20   22 am
    39   22   23 1
    40   22   51 1
    41   23   24 1
    42   23   52 1
    43   23   53 1
    44   24   25 1
    45   24   54 1
    46   24   55 1
    47   25   26 1
    48   25   56 1
    49   25   57 1
    50   26   27 1
    51   26   58 1
    52   26   77 1
    53   27   28 1
    54   27   59 1
    55   27   60 1
    56   28   29 1
    57   28   61 1
    58   28   62 1
    59   29   30 1
    60   29   63 1
    61   29   64 1
    62   30   31 1
    63   30   65 1
    64   30   66 1
    65   31   32 1
    66   31   67 1
    67   31   78 1
    68   32   33 1
    69   32   68 1
    70   32   69 1
    71   33   34 1
    72   33   70 1
    73   33   71 1
    74   34   35 1
    75   34   72 1
    76   34   73 1
    77   35   74 1
    78   35   75 1
    79   35   76 1
@<TRIPOS>MOLECULE
CHEMBL192014
   77    78     0     0     0
SMALL
USER_CHARGES

@<TRIPOS>ATOM
      1 C1         -0.0187    1.5258    0.0104 C.3       1 <0>        -0.1555
      2 C2          0.0021   -0.0041    0.0020 C.3       1 <0>        -0.1067
      3 C3         -1.4333   -0.5336    0.0129 C.3       1 <0>        -0.1465
      4 C4         -1.4129   -2.0405    0.0046 C.2       1 <0>         0.5260
      5 O1         -0.3545   -2.6325   -0.0087 O.2       1 <0>        -0.5144
      6 N1         -2.5708   -2.7302    0.0119 N.am      1 <0>        -0.7200
      7 C5         -2.5509   -4.1950    0.0039 C.3       1 <0>         0.1469
      8 H1         -3.5735   -4.5723    0.0116 H         1 <0>         0.1064
      9 C6         -1.8348   -4.6884   -1.2549 C.3       1 <0>        -0.0532
     10 C7         -2.6301   -4.2938   -2.4726 C.2       1 <0>        -0.1737
     11 C8         -3.5342   -5.0498   -3.1152 C.2       1 <0>         0.0548
     12 N2         -4.0519   -4.3575   -4.1760 N.pl3     1 <0>        -0.5935
     13 H2         -4.7226   -4.6969   -4.7890 H         1 <0>         0.4178
     14 C9         -3.4789   -3.1073   -4.2435 C.ar      1 <0>         0.0944
     15 C10        -2.5677   -3.0102   -3.1757 C.ar      1 <0>        -0.0941
     16 C11        -1.8357   -1.8363   -2.9893 C.ar      1 <0>        -0.0788
     17 C12        -2.0109   -0.7846   -3.8441 C.ar      1 <0>        -0.1415
     18 C13        -2.9114   -0.8738   -4.8965 C.ar      1 <0>        -0.0933
     19 C14        -3.6374   -2.0264   -5.1044 C.ar      1 <0>        -0.1290
     20 C15        -1.8220   -4.6942    1.2248 C.2       1 <0>         0.5034
     21 O2         -1.0648   -3.9588    1.8220 O.2       1 <0>        -0.4908
     22 N3         -2.0117   -5.9580    1.6530 N.am      1 <0>        -0.7426
     23 C16        -1.3031   -6.4433    2.8399 C.3       1 <0>         0.1252
     24 C17        -1.6936   -7.8982    3.1076 C.3       1 <0>        -0.1635
     25 C18        -0.9536   -8.4051    4.3472 C.3       1 <0>        -0.0060
     26 N4         -1.3285   -9.8020    4.6042 N.4       1 <0>        -0.5093
     27 C19        -0.6180  -10.2886    5.7943 C.3       1 <0>        -0.0099
     28 C20        -1.0085  -11.7435    6.0620 C.3       1 <0>        -0.1489
     29 C21        -0.2685  -12.2503    7.3016 C.3       1 <0>        -0.1499
     30 C22        -0.6590  -13.7052    7.5693 C.3       1 <0>        -0.0092
     31 N5          0.0515  -14.1919    8.7594 N.4       1 <0>        -0.5096
     32 C23        -0.3234  -15.5888    9.0165 C.3       1 <0>        -0.0073
     33 C24         0.4166  -16.0956   10.2560 C.3       1 <0>        -0.1522
     34 C25         0.0261  -17.5505   10.5237 C.3       1 <0>         0.0630
     35 N6          0.7366  -18.0371   11.7138 N.3       1 <0>        -0.8529
     36 H3          1.0039    1.9031    0.0027 H         1 <0>         0.0596
     37 H4         -0.5459    1.8868   -0.8726 H         1 <0>         0.0563
     38 H5         -0.5289    1.8773    0.9072 H         1 <0>         0.0544
     39 H6          0.5123   -0.3556   -0.8948 H         1 <0>         0.0684
     40 H7          0.5293   -0.3651    0.8851 H         1 <0>         0.0682
     41 H8         -1.9435   -0.1821    0.9097 H         1 <0>         0.0910
     42 H9         -1.9605   -0.1726   -0.8702 H         1 <0>         0.0956
     43 H10        -3.4173   -2.2567    0.0226 H         1 <0>         0.4063
     44 H11        -0.8427   -4.2400   -1.3079 H         1 <0>         0.1012
     45 H12        -1.7414   -5.7738   -1.2180 H         1 <0>         0.0744
     46 H13        -3.8117   -6.0556   -2.8366 H         1 <0>         0.1660
     47 H14        -1.1337   -1.7594   -2.1721 H         1 <0>         0.1213
     48 H15        -1.4443    0.1234   -3.6995 H         1 <0>         0.1237
     49 H16        -3.0393   -0.0339   -5.5632 H         1 <0>         0.1281
     50 H17        -4.3365   -2.0857   -5.9254 H         1 <0>         0.1214
     51 H18        -2.6173   -6.5462    1.1754 H         1 <0>         0.4009
     52 H19        -0.2279   -6.3807    2.6721 H         1 <0>         0.0775
     53 H20        -1.5729   -5.8305    3.7000 H         1 <0>         0.0759
     54 H21        -2.7688   -7.9609    3.2754 H         1 <0>         0.0960
     55 H22        -1.4238   -8.5110    2.2475 H         1 <0>         0.0966
     56 H23         0.1216   -8.3424    4.1794 H         1 <0>         0.1390
     57 H24        -1.2234   -7.7923    5.2073 H         1 <0>         0.1386
     58 H25        -2.3238   -9.8599    4.7595 H         1 <0>         0.4309
     59 H26         0.4572  -10.2259    5.6265 H         1 <0>         0.1372
     60 H27        -0.8878   -9.6758    6.6544 H         1 <0>         0.1372
     61 H28        -2.0837  -11.8061    6.2298 H         1 <0>         0.0998
     62 H29        -0.7387  -12.3563    5.2019 H         1 <0>         0.0997
     63 H30         0.8067  -12.1877    7.1338 H         1 <0>         0.1001
     64 H31        -0.5383  -11.6375    8.1617 H         1 <0>         0.1004
     65 H32        -1.7342  -13.7679    7.7371 H         1 <0>         0.1362
     66 H33        -0.3892  -14.3180    6.7092 H         1 <0>         0.1356
     67 H34         1.0468  -14.1339    8.6041 H         1 <0>         0.4307
     68 H35        -1.3986  -15.6514    9.1842 H         1 <0>         0.1358
     69 H36        -0.0536  -16.2015    8.1563 H         1 <0>         0.1335
     70 H37         1.4918  -16.0329   10.0882 H         1 <0>         0.0869
     71 H38         0.1468  -15.4828   11.1161 H         1 <0>         0.0979
     72 H39        -1.0491  -17.6131   10.6915 H         1 <0>         0.0833
     73 H40         0.2959  -18.1633    9.6636 H         1 <0>         0.0383
     74 H41         0.4954  -18.9967   11.9118 H         1 <0>         0.3609
     75 H42         1.7343  -17.9294   11.6086 H         1 <0>         0.3469
     76 H43        -1.0787  -10.3692    3.8080 H         1 <0>         0.4311
     77 H44        -0.1982  -13.6246    9.5556 H         1 <0>         0.4317
@<TRIPOS>BOND
     1    1    2 1
     2    1   36 1
     3    1   37 1
     4    1   38 1
     5    2    3 1
     6    2   39 1
     7    2   40 1
     8    3    4 1
     9    3   41 1
    10    3   42 1
    11    4    5 2
    12    4    6 am
    13    6    7 1
    14    6   43 1
    15    7    8 1
    16    7    9 1
    17    7   20 1
    18    9   10 1
    19    9   44 1
    20    9   45 1
    21   10   15 1
    22   10   11 2
    23   11   12 1
    24   11   46 1
    25   12   13 1
    26   12   14 1
    27   14   19 ar
    28   14   15 ar
    29   15   16 ar
    30   16   17 ar
    31   16   47 1
    32   17   18 ar
    33   17   48 1
    34   18   19 ar
    35   18   49 1
    36   19   50 1
    37   20   21 2
    38   20   22 am
    39   22   23 1
    40   22   51 1
    41   23   24 1
    42   23   52 1
    43   23   53 1
    44   24   25 1
    45   24   54 1
    46   24   55 1
    47   25   26 1
    48   25   56 1
    49   25   57 1
    50   26   27 1
    51   26   58 1
    52   26   76 1
    53   27   28 1
    54   27   59 1
    55   27   60 1
    56   28   29 1
    57   28   61 1
    58   28   62 1
    59   29   30 1
    60   29   63 1
    61   29   64 1
    62   30   31 1
    63   30   65 1
    64   30   66 1
    65   31   32 1
    66   31   67 1
    67   31   77 1
    68   32   33 1
    69   32   68 1
    70   32   69 1
    71   33   34 1
    72   33   70 1
    73   33   71 1
    74   34   35 1
    75   34   72 1
    76   34   73 1
    77   35   74 1
    78   35   75 1
@<TRIPOS>MOLECULE
CHEMBL387049
   63    66     0     0     0
SMALL
USER_CHARGES

@<TRIPOS>ATOM
      1 C1         -0.3616    1.4975    0.4108 C.3       1 <0>         0.0229
      2 N1         -0.2601    0.0368    0.2927 N.3       1 <0>        -0.5347
      3 C2         -1.5940   -0.5839    0.2628 C.3       1 <0>         0.0494
      4 C3         -1.4463   -2.0267   -0.2204 C.3       1 <0>        -0.0793
      5 C4         -0.3742   -2.7292    0.5743 C.ar      1 <0>        -0.0020
      6 C5         -0.3375   -4.1286    0.5416 C.ar      1 <0>        -0.0977
      7 C6          0.6345   -4.8200    1.2554 C.ar      1 <0>        -0.0151
      8 C7          1.5683   -4.1120    1.9986 C.ar      1 <0>        -0.0875
      9 C8          1.5323   -2.7136    2.0335 C.ar      1 <0>         0.1850
     10 C9          0.5489   -2.0296    1.3149 C.ar      1 <0>        -0.1022
     11 C10         0.5359   -0.5249    1.3884 C.3       1 <0>         0.0976
     12 N2          2.5635   -2.2432    2.8408 N.am      1 <0>        -0.6547
     13 C11         3.2901   -3.2523    3.3505 C.2       1 <0>         0.5438
     14 O1          4.2502   -3.1431    4.0879 O.2       1 <0>        -0.4623
     15 C12         2.7093   -4.5253    2.8512 C.2       1 <0>         0.0780
     16 N3          3.1130   -5.7368    3.1060 N.2       1 <0>        -0.2067
     17 O2          4.2305   -5.9480    3.9495 O.3       1 <0>        -0.1586
     18 C13         4.5618   -7.3248    4.1417 C.3       1 <0>         0.0226
     19 C14         5.3049   -7.4901    5.4688 C.3       1 <0>        -0.0942
     20 C15         4.3687   -7.1338    6.6253 C.3       1 <0>         0.0771
     21 O3          5.0627   -7.2883    7.8649 O.3       1 <0>        -0.5736
     22 C16         5.4422   -7.7921    3.0114 C.2       1 <0>         0.4858
     23 O4          5.8316   -6.9970    2.1731 O.co2     1 <0>        -0.6750
     24 O5          5.7651   -8.9653    2.9352 O.co2     1 <0>        -0.6901
     25 C17        -1.3399   -4.8759   -0.2572 C.ar      1 <0>         0.0284
     26 C18        -1.4810   -4.6188   -1.6195 C.ar      1 <0>        -0.1260
     27 C19        -2.4147   -5.3174   -2.3578 C.ar      1 <0>        -0.0184
     28 C20        -3.2095   -6.2711   -1.7480 C.ar      1 <0>        -0.6808
     29 C21        -3.0741   -6.5300   -0.3959 C.ar      1 <0>        -0.0178
     30 C22        -2.1397   -5.8415    0.3509 C.ar      1 <0>        -0.1267
     31 S1         -4.3995   -7.1590   -2.6968 S.o2      1 <0>         2.6933
     32 O6         -5.3929   -7.6077   -1.7851 O.2       1 <0>        -0.9553
     33 O7         -4.7086   -6.3483   -3.8221 O.2       1 <0>        -0.9567
     34 N4         -3.6474   -8.5136   -3.2816 N.pl3     1 <0>        -1.0054
     35 C23        -3.6633   -9.7542   -2.5027 C.3       1 <0>         0.0911
     36 C24        -2.9662   -8.4712   -4.5778 C.3       1 <0>         0.0806
     37 H1          0.6362    1.9349    0.3779 H         1 <0>         0.0711
     38 H2         -0.9570    1.8882   -0.4143 H         1 <0>         0.0726
     39 H3         -0.8394    1.7532    1.3566 H         1 <0>         0.0275
     40 H4         -2.0246   -0.5753    1.2642 H         1 <0>         0.0422
     41 H5         -2.2392   -0.0328   -0.4213 H         1 <0>         0.0839
     42 H6         -2.3937   -2.5502   -0.0916 H         1 <0>         0.0854
     43 H7         -1.1742   -2.0287   -1.2758 H         1 <0>         0.0933
     44 H8          0.6625   -5.8994    1.2319 H         1 <0>         0.1410
     45 H9          1.5579   -0.1527    1.3180 H         1 <0>         0.0865
     46 H10         0.1058   -0.2150    2.3408 H         1 <0>         0.0499
     47 H11         2.7361   -1.3045    3.0141 H         1 <0>         0.4172
     48 H12         3.6482   -7.9191    4.1603 H         1 <0>         0.0742
     49 H13         5.6353   -8.5235    5.5740 H         1 <0>         0.0966
     50 H14         6.1708   -6.8284    5.4853 H         1 <0>         0.0761
     51 H15         4.0383   -6.1004    6.5202 H         1 <0>         0.0467
     52 H16         3.5027   -7.7956    6.6089 H         1 <0>         0.0420
     53 H17         4.5288   -7.0788    8.6434 H         1 <0>         0.3722
     54 H18        -0.8611   -3.8742   -2.0966 H         1 <0>         0.1376
     55 H19        -2.5251   -5.1187   -3.4136 H         1 <0>         0.1409
     56 H20        -3.6978   -7.2752    0.0753 H         1 <0>         0.1405
     57 H21        -2.0316   -6.0477    1.4055 H         1 <0>         0.1369
     58 H22        -4.5382  -10.3439   -2.7764 H         1 <0>         0.0613
     59 H23        -2.7595  -10.3264   -2.7121 H         1 <0>         0.0764
     60 H24        -3.7041   -9.5155   -1.4399 H         1 <0>         0.0727
     61 H25        -1.9263   -8.1787   -4.4324 H         1 <0>         0.0584
     62 H26        -3.0049   -9.4571   -5.0411 H         1 <0>         0.0786
     63 H27        -3.4604   -7.7462   -5.2245 H         1 <0>         0.0838
@<TRIPOS>BOND
     1    1    2 1
     2    1   37 1
     3    1   38 1
     4    1   39 1
     5    2   11 1
     6    2    3 1
     7    3    4 1
     8    3   40 1
     9    3   41 1
    10    4    5 1
    11    4   42 1
    12    4   43 1
    13    5   10 ar
    14    5    6 ar
    15    6    7 ar
    16    6   25 1
    17    7    8 ar
    18    7   44 1
    19    8   15 1
    20    8    9 ar
    21    9   10 ar
    22    9   12 1
    23   10   11 1
    24   11   45 1
    25   11   46 1
    26   12   13 am
    27   12   47 1
    28   13   14 2
    29   13   15 1
    30   15   16 2
    31   16   17 1
    32   17   18 1
    33   18   19 1
    34   18   22 1
    35   18   48 1
    36   19   20 1
    37   19   49 1
    38   19   50 1
    39   20   21 1
    40   20   51 1
    41   20   52 1
    42   21   53 1
    43   22   23 2
    44   22   24 1
    45   25   30 ar
    46   25   26 ar
    47   26   27 ar
    48   26   54 1
    49   27   28 ar
    50   27   55 1
    51   28   29 ar
    52   28   31 1
    53   29   30 ar
    54   29   56 1
    55   30   57 1
    56   31   32 2
    57   31   33 2
    58   31   34 1
    59   34   35 1
    60   34   36 1
    61   35   58 1
    62   35   59 1
    63   35   60 1
    64   36   61 1
    65   36   62 1
    66   36   63 1
@<TRIPOS>MOLECULE
CHEMBL387049
   63    66     0     0     0
SMALL
USER_CHARGES

@<TRIPOS>ATOM
      1 C1         -0.3616    1.4975    0.4108 C.3       1 <0>         0.0226
      2 N1         -0.2601    0.0368    0.2927 N.3       1 <0>        -0.5346
      3 C2         -1.5940   -0.5839    0.2628 C.3       1 <0>         0.0486
      4 C3         -1.4463   -2.0267   -0.2204 C.3       1 <0>        -0.0789
      5 C4         -0.3742   -2.7292    0.5743 C.ar      1 <0>        -0.0021
      6 C5         -0.3375   -4.1286    0.5416 C.ar      1 <0>        -0.0975
      7 C6          0.6345   -4.8200    1.2554 C.ar      1 <0>        -0.0154
      8 C7          1.5683   -4.1120    1.9986 C.ar      1 <0>        -0.0874
      9 C8          1.5323   -2.7136    2.0335 C.ar      1 <0>         0.1848
     10 C9          0.5489   -2.0296    1.3149 C.ar      1 <0>        -0.1020
     11 C10         0.5359   -0.5249    1.3884 C.3       1 <0>         0.0971
     12 N2          2.5635   -2.2432    2.8408 N.am      1 <0>        -0.6547
     13 C11         3.2901   -3.2523    3.3505 C.2       1 <0>         0.5438
     14 O1          4.2502   -3.1431    4.0879 O.2       1 <0>        -0.4623
     15 C12         2.7093   -4.5253    2.8512 C.2       1 <0>         0.0780
     16 N3          3.1130   -5.7368    3.1060 N.2       1 <0>        -0.2067
     17 O2          4.2305   -5.9480    3.9495 O.3       1 <0>        -0.1586
     18 C13         4.5618   -7.3248    4.1417 C.3       1 <0>         0.0225
     19 C14         6.0441   -7.4475    4.5002 C.3       1 <0>        -0.0942
     20 C15         6.8953   -6.9880    3.3147 C.3       1 <0>         0.0770
     21 O3          8.2797   -7.1026    3.6495 O.3       1 <0>        -0.5736
     22 C16         3.7259   -7.8912    5.2604 C.2       1 <0>         0.4860
     23 O4          3.7877   -9.0794    5.5262 O.co2     1 <0>        -0.6900
     24 O5          2.9877   -7.1611    5.8996 O.co2     1 <0>        -0.6753
     25 C17        -1.3399   -4.8759   -0.2572 C.ar      1 <0>         0.0277
     26 C18        -1.4810   -4.6188   -1.6195 C.ar      1 <0>        -0.1270
     27 C19        -2.4147   -5.3174   -2.3578 C.ar      1 <0>        -0.0198
     28 C20        -3.2095   -6.2711   -1.7480 C.ar      1 <0>        -0.6807
     29 C21        -3.0741   -6.5300   -0.3959 C.ar      1 <0>        -0.0169
     30 C22        -2.1397   -5.8415    0.3509 C.ar      1 <0>        -0.1255
     31 S1         -4.3995   -7.1590   -2.6968 S.o2      1 <0>         2.6929
     32 O6         -5.3929   -7.6077   -1.7851 O.2       1 <0>        -0.9540
     33 O7         -4.7086   -6.3483   -3.8221 O.2       1 <0>        -0.9570
     34 N4         -3.6474   -8.5136   -3.2816 N.pl3     1 <0>        -1.0056
     35 C23        -3.6633   -9.7542   -2.5027 C.3       1 <0>         0.0909
     36 C24        -2.9662   -8.4712   -4.5778 C.3       1 <0>         0.0813
     37 H1          0.6362    1.9349    0.3779 H         1 <0>         0.0707
     38 H2         -0.9570    1.8882   -0.4143 H         1 <0>         0.0725
     39 H3         -0.8394    1.7532    1.3566 H         1 <0>         0.0281
     40 H4         -2.0246   -0.5753    1.2642 H         1 <0>         0.0431
     41 H5         -2.2392   -0.0328   -0.4213 H         1 <0>         0.0839
     42 H6         -2.3937   -2.5502   -0.0916 H         1 <0>         0.0856
     43 H7         -1.1742   -2.0287   -1.2758 H         1 <0>         0.0927
     44 H8          0.6625   -5.8994    1.2319 H         1 <0>         0.1410
     45 H9          1.5579   -0.1527    1.3180 H         1 <0>         0.0860
     46 H10         0.1058   -0.2150    2.3408 H         1 <0>         0.0508
     47 H11         2.7361   -1.3045    3.0141 H         1 <0>         0.4172
     48 H12         4.3630   -7.8778    3.2237 H         1 <0>         0.0742
     49 H13         6.2612   -6.8231    5.3669 H         1 <0>         0.0761
     50 H14         6.2767   -8.4865    4.7334 H         1 <0>         0.0966
     51 H15         6.6782   -7.6123    2.4480 H         1 <0>         0.0420
     52 H16         6.6626   -5.9490    3.0815 H         1 <0>         0.0468
     53 H17         8.8794   -6.8277    2.9425 H         1 <0>         0.3722
     54 H18        -0.8611   -3.8742   -2.0966 H         1 <0>         0.1368
     55 H19        -2.5251   -5.1187   -3.4136 H         1 <0>         0.1403
     56 H20        -3.6978   -7.2752    0.0753 H         1 <0>         0.1413
     57 H21        -2.0316   -6.0477    1.4055 H         1 <0>         0.1388
     58 H22        -4.5382  -10.3439   -2.7764 H         1 <0>         0.0616
     59 H23        -2.7595  -10.3264   -2.7121 H         1 <0>         0.0758
     60 H24        -3.7041   -9.5155   -1.4399 H         1 <0>         0.0736
     61 H25        -1.9263   -8.1787   -4.4324 H         1 <0>         0.0573
     62 H26        -3.0049   -9.4571   -5.0411 H         1 <0>         0.0782
     63 H27        -3.4604   -7.7462   -5.2245 H         1 <0>         0.0836
@<TRIPOS>BOND
     1    1    2 1
     2    1   37 1
     3    1   38 1
     4    1   39 1
     5    2   11 1
     6    2    3 1
     7    3    4 1
     8    3   40 1
     9    3   41 1
    10    4    5 1
    11    4   42 1
    12    4   43 1
    13    5   10 ar
    14    5    6 ar
    15    6    7 ar
    16    6   25 1
    17    7    8 ar
    18    7   44 1
    19    8   15 1
    20    8    9 ar
    21    9   10 ar
    22    9   12 1
    23   10   11 1
    24   11   45 1
    25   11   46 1
    26   12   13 am
    27   12   47 1
    28   13   14 2
    29   13   15 1
    30   15   16 2
    31   16   17 1
    32   17   18 1
    33   18   19 1
    34   18   22 1
    35   18   48 1
    36   19   20 1
    37   19   49 1
    38   19   50 1
    39   20   21 1
    40   20   51 1
    41   20   52 1
    42   21   53 1
    43   22   23 2
    44   22   24 1
    45   25   30 ar
    46   25   26 ar
    47   26   27 ar
    48   26   54 1
    49   27   28 ar
    50   27   55 1
    51   28   29 ar
    52   28   31 1
    53   29   30 ar
    54   29   56 1
    55   30   57 1
    56   31   32 2
    57   31   33 2
    58   31   34 1
    59   34   35 1
    60   34   36 1
    61   35   58 1
    62   35   59 1
    63   35   60 1
    64   36   61 1
    65   36   62 1
    66   36   63 1
@<TRIPOS>MOLECULE
CHEMBL299179
   53    57     0     0     0
SMALL
USER_CHARGES

@<TRIPOS>ATOM
      1 C1         -0.0167    1.3768    0.0096 C.ar      1 <0>        -0.1046
      2 C2          1.1704    2.0866    0.0021 C.ar      1 <0>        -0.0864
      3 C3          2.3799    1.4169   -0.0130 C.ar      1 <0>        -0.1029
      4 C4          2.4060    0.0348   -0.0206 C.ar      1 <0>        -0.0265
      5 C5          1.2147   -0.6807   -0.0131 C.ar      1 <0>         0.1000
      6 C6          0.0021   -0.0041    0.0020 C.ar      1 <0>        -0.0890
      7 N1          1.2369   -2.0807   -0.0212 N.am      1 <0>        -0.4967
      8 C7          1.2537   -2.7706    1.1660 C.2       1 <0>         0.4100
      9 N2          1.2753   -4.0807    1.2297 N.2       1 <0>        -0.4779
     10 C8          1.2820   -4.8426    0.1194 C.ar      1 <0>         0.1295
     11 C9          1.3046   -6.2394    0.1927 C.ar      1 <0>        -0.0639
     12 C10         1.3103   -6.9803   -0.9547 C.ar      1 <0>        -0.1052
     13 C11         1.2946   -6.3663   -2.2029 C.ar      1 <0>         0.1068
     14 C12         1.2722   -4.9901   -2.3072 C.ar      1 <0>        -0.0809
     15 C13         1.2654   -4.2160   -1.1485 C.ar      1 <0>        -0.1530
     16 C14         1.2362   -2.7472   -1.1991 C.2       1 <0>         0.5551
     17 O1          1.2165   -2.1524   -2.2611 O.2       1 <0>        -0.4741
     18 F1          1.3017   -7.1231   -3.3220 F         1 <0>        -0.1221
     19 C15         1.2478   -2.0090    2.4182 C.2       1 <0>        -0.0768
     20 C16         1.2638   -2.6556    3.5999 C.2       1 <0>        -0.0669
     21 C17         1.2578   -1.8903    4.8582 C.ar      1 <0>         0.1967
     22 C18         1.2803   -2.5662    6.0792 C.ar      1 <0>        -0.1386
     23 C19         1.2744   -1.8355    7.2566 C.ar      1 <0>         0.0348
     24 C20         1.2462   -0.4533    7.1793 C.ar      1 <0>        -0.1914
     25 C21         1.2248    0.1609    5.9289 C.ar      1 <0>         0.4705
     26 N3          1.2365   -0.5603    4.8213 N.ar      1 <0>        -0.5141
     27 N4          1.1960    1.5478    5.8452 N.pl3     1 <0>        -0.5970
     28 C22         1.1647    2.3307    4.6012 C.3       1 <0>         0.0753
     29 C23         1.1662    3.8220    4.9982 C.3       1 <0>        -0.1292
     30 C24         1.7692    3.8005    6.4276 C.3       1 <0>        -0.1353
     31 C25         1.1854    2.4775    6.9893 C.3       1 <0>         0.1004
     32 Cl1         3.9247   -0.8058   -0.0402 Cl        1 <0>        -0.0420
     33 H1         -0.9595    1.9032    0.0259 H         1 <0>         0.1455
     34 H2          1.1525    3.1664    0.0077 H         1 <0>         0.1467
     35 H3          3.3050    1.9740   -0.0192 H         1 <0>         0.1485
     36 H4         -0.9255   -0.5572    0.0082 H         1 <0>         0.1412
     37 H5          1.3177   -6.7308    1.1543 H         1 <0>         0.1571
     38 H6          1.3278   -8.0583   -0.8921 H         1 <0>         0.1563
     39 H7          1.2604   -4.5175   -3.2783 H         1 <0>         0.1571
     40 H8          1.2305   -0.9294    2.3936 H         1 <0>         0.1292
     41 H9          1.2811   -3.7352    3.6246 H         1 <0>         0.1906
     42 H10         1.3017   -3.6456    6.1061 H         1 <0>         0.1865
     43 H11         1.2910   -2.3338    8.2146 H         1 <0>         0.1799
     44 H12         1.2406    0.1430    8.0797 H         1 <0>         0.1789
     45 H13         2.0457    2.1064    3.9997 H         1 <0>         0.0835
     46 H14         0.2604    2.0977    4.0391 H         1 <0>         0.0850
     47 H15         1.7964    4.4004    4.3225 H         1 <0>         0.1002
     48 H16         0.1508    4.2179    5.0139 H         1 <0>         0.0915
     49 H17         2.8581    3.7668    6.3919 H         1 <0>         0.0879
     50 H18         1.4253    4.6555    7.0097 H         1 <0>         0.1054
     51 H19         0.1662    2.6305    7.3443 H         1 <0>         0.0960
     52 H20         1.8150    2.0967    7.7934 H         1 <0>         0.0967
     53 H21         1.2254   -0.1099    3.9622 H         1 <0>         0.4316
@<TRIPOS>BOND
     1    1    6 ar
     2    1    2 ar
     3    1   33 1
     4    2    3 ar
     5    2   34 1
     6    3    4 ar
     7    3   35 1
     8    4    5 ar
     9    4   32 1
    10    5    6 ar
    11    5    7 1
    12    6   36 1
    13    7   16 am
    14    7    8 1
    15    8    9 2
    16    8   19 1
    17    9   10 1
    18   10   15 ar
    19   10   11 ar
    20   11   12 ar
    21   11   37 1
    22   12   13 ar
    23   12   38 1
    24   13   14 ar
    25   13   18 1
    26   14   15 ar
    27   14   39 1
    28   15   16 1
    29   16   17 2
    30   19   20 2
    31   19   40 1
    32   20   21 1
    33   20   41 1
    34   21   26 ar
    35   21   22 ar
    36   22   23 ar
    37   22   42 1
    38   23   24 ar
    39   23   43 1
    40   24   25 ar
    41   24   44 1
    42   25   26 ar
    43   25   27 1
    44   26   53 1
    45   27   31 1
    46   27   28 1
    47   28   29 1
    48   28   45 1
    49   28   46 1
    50   29   30 1
    51   29   47 1
    52   29   48 1
    53   30   31 1
    54   30   49 1
    55   30   50 1
    56   31   51 1
    57   31   52 1
@<TRIPOS>MOLECULE
CHEMBL299179
   52    56     0     0     0
SMALL
USER_CHARGES

@<TRIPOS>ATOM
      1 C1         -0.0167    1.3768    0.0096 C.ar      1 <0>        -0.1029
      2 C2          1.1704    2.0866    0.0021 C.ar      1 <0>        -0.0873
      3 C3          2.3799    1.4169   -0.0130 C.ar      1 <0>        -0.1017
      4 C4          2.4060    0.0348   -0.0206 C.ar      1 <0>        -0.0167
      5 C5          1.2147   -0.6807   -0.0131 C.ar      1 <0>         0.1128
      6 C6          0.0021   -0.0041    0.0020 C.ar      1 <0>        -0.0837
      7 N1          1.2369   -2.0807   -0.0212 N.am      1 <0>        -0.4969
      8 C7          1.2537   -2.7706    1.1660 C.2       1 <0>         0.4422
      9 N2          1.2753   -4.0807    1.2297 N.2       1 <0>        -0.5115
     10 C8          1.2820   -4.8426    0.1194 C.ar      1 <0>         0.1550
     11 C9          1.3046   -6.2394    0.1927 C.ar      1 <0>        -0.0802
     12 C10         1.3103   -6.9803   -0.9547 C.ar      1 <0>        -0.1021
     13 C11         1.2946   -6.3663   -2.2029 C.ar      1 <0>         0.0810
     14 C12         1.2722   -4.9901   -2.3072 C.ar      1 <0>        -0.0738
     15 C13         1.2654   -4.2160   -1.1485 C.ar      1 <0>        -0.1737
     16 C14         1.2362   -2.7472   -1.1991 C.2       1 <0>         0.5559
     17 O1          1.2165   -2.1524   -2.2611 O.2       1 <0>        -0.4888
     18 F1          1.3017   -7.1231   -3.3220 F         1 <0>        -0.1312
     19 C15         1.2478   -2.0090    2.4182 C.2       1 <0>        -0.1191
     20 C16         1.2638   -2.6556    3.5999 C.2       1 <0>        -0.0113
     21 C17         1.2578   -1.8903    4.8582 C.ar      1 <0>         0.1833
     22 C18         1.2803   -2.5662    6.0792 C.ar      1 <0>        -0.2032
     23 C19         1.2744   -1.8355    7.2566 C.ar      1 <0>        -0.0344
     24 C20         1.2462   -0.4533    7.1793 C.ar      1 <0>        -0.2267
     25 C21         1.2248    0.1609    5.9289 C.ar      1 <0>         0.4267
     26 N3          1.2365   -0.5603    4.8213 N.ar      1 <0>        -0.5304
     27 N4          1.1960    1.5478    5.8452 N.pl3     1 <0>        -0.6171
     28 C22         1.0607    2.3289    4.6070 C.3       1 <0>         0.1219
     29 C23         1.1044    3.8208    4.9994 C.3       1 <0>        -0.1345
     30 C24         1.8294    3.7983    6.3710 C.3       1 <0>        -0.1337
     31 C25         1.2897    2.4794    6.9840 C.3       1 <0>         0.1155
     32 Cl1         3.9247   -0.8058   -0.0402 Cl        1 <0>        -0.0508
     33 H1         -0.9595    1.9032    0.0259 H         1 <0>         0.1406
     34 H2          1.1525    3.1664    0.0077 H         1 <0>         0.1415
     35 H3          3.3050    1.9740   -0.0192 H         1 <0>         0.1436
     36 H4         -0.9255   -0.5572    0.0082 H         1 <0>         0.1369
     37 H5          1.3177   -6.7308    1.1543 H         1 <0>         0.1531
     38 H6          1.3278   -8.0583   -0.8921 H         1 <0>         0.1494
     39 H7          1.2604   -4.5175   -3.2783 H         1 <0>         0.1514
     40 H8          1.2305   -0.9294    2.3936 H         1 <0>         0.1509
     41 H9          1.2811   -3.7352    3.6246 H         1 <0>         0.1540
     42 H10         1.3017   -3.6456    6.1061 H         1 <0>         0.1379
     43 H11         1.2910   -2.3338    8.2146 H         1 <0>         0.1375
     44 H12         1.2406    0.1430    8.0797 H         1 <0>         0.1308
     45 H13         1.8848    2.0989    3.9317 H         1 <0>         0.0644
     46 H14         0.1097    2.0998    4.1262 H         1 <0>         0.0622
     47 H15         1.6764    4.3947    4.2703 H         1 <0>         0.0827
     48 H16         0.0963    4.2222    5.1025 H         1 <0>         0.0763
     49 H17         2.9108    3.7588    6.2407 H         1 <0>         0.0773
     50 H18         1.5418    4.6560    6.9790 H         1 <0>         0.0860
     51 H19         0.3061    2.6383    7.4260 H         1 <0>         0.0669
     52 H20         1.9849    2.0965    7.7311 H         1 <0>         0.0737
@<TRIPOS>BOND
     1    1    6 ar
     2    1    2 ar
     3    1   33 1
     4    2    3 ar
     5    2   34 1
     6    3    4 ar
     7    3   35 1
     8    4    5 ar
     9    4   32 1
    10    5    6 ar
    11    5    7 1
    12    6   36 1
    13    7   16 am
    14    7    8 1
    15    8    9 2
    16    8   19 1
    17    9   10 1
    18   10   15 ar
    19   10   11 ar
    20   11   12 ar
    21   11   37 1
    22   12   13 ar
    23   12   38 1
    24   13   14 ar
    25   13   18 1
    26   14   15 ar
    27   14   39 1
    28   15   16 1
    29   16   17 2
    30   19   20 2
    31   19   40 1
    32   20   21 1
    33   20   41 1
    34   21   26 ar
    35   21   22 ar
    36   22   23 ar
    37   22   42 1
    38   23   24 ar
    39   23   43 1
    40   24   25 ar
    41   24   44 1
    42   25   26 ar
    43   25   27 1
    44   27   31 1
    45   27   28 1
    46   28   29 1
    47   28   45 1
    48   28   46 1
    49   29   30 1
    50   29   47 1
    51   29   48 1
    52   30   31 1
    53   30   49 1
    54   30   50 1
    55   31   51 1
    56   31   52 1
@<TRIPOS>MOLECULE
CHEMBL303068
   34    37     0     0     0
SMALL
USER_CHARGES

@<TRIPOS>ATOM
      1 C1         -0.3004    0.2913    0.6405 C.3       1 <0>        -0.1536
      2 C2          0.0868   -1.1640    0.3704 C.3       1 <0>        -0.0403
      3 C3          0.7454   -1.2660   -0.9812 C.2       1 <0>         0.1711
      4 N1          0.1589   -1.5973   -2.1057 N.2       1 <0>        -0.2797
      5 N2          1.0122   -1.5868   -3.0701 N.2       1 <0>        -0.2339
      6 C4          2.1946   -1.2453   -2.6029 C.2       1 <0>         0.1350
      7 N3          2.0429   -1.0277   -1.2547 N.pl3     1 <0>        -0.3870
      8 C5          3.1417   -0.6455   -0.5047 C.ar      1 <0>         0.0371
      9 C6          3.0211   -0.4219    0.8603 C.ar      1 <0>        -0.0707
     10 C7          4.1297   -0.0404    1.5973 C.ar      1 <0>         0.0915
     11 C8          5.3652    0.1205    0.9748 C.ar      1 <0>         0.0025
     12 C9          5.4987   -0.0957   -0.3658 C.ar      1 <0>        -0.0590
     13 C10         4.3900   -0.4829   -1.1304 C.ar      1 <0>         0.2271
     14 N4          4.5303   -0.6967   -2.4637 N.2       1 <0>        -0.6005
     15 C11         3.5156   -1.0683   -3.2068 C.2       1 <0>         0.5156
     16 O1          3.6867   -1.2723   -4.5348 O.3       1 <0>        -0.5932
     17 N5          6.5424    0.5296    1.7735 N.pl3     1 <0>         0.0296
     18 O2          6.4141    1.3239    2.6759 O.2       1 <0>        -0.1369
     19 O3          7.6321    0.0695    1.5235 O.3       1 <0>        -0.1518
     20 N6          4.0078    0.1853    2.9757 N.pl3     1 <0>        -0.4071
     21 C12         4.7506   -0.4027    3.9666 C.2       1 <0>        -0.0445
     22 C13         4.3068    0.0973    5.1356 C.2       1 <0>        -0.0162
     23 N7          3.3205    0.9670    4.8715 N.2       1 <0>        -0.4849
     24 C14         3.1354    1.0323    3.5811 C.2       1 <0>         0.1989
     25 H1          0.5939    0.9143    0.6242 H         1 <0>         0.0548
     26 H2         -0.9942    0.6314   -0.1283 H         1 <0>         0.0681
     27 H3         -0.7767    0.3651    1.6181 H         1 <0>         0.0745
     28 H4          0.7806   -1.5041    1.1393 H         1 <0>         0.0829
     29 H5         -0.8075   -1.7869    0.3868 H         1 <0>         0.1064
     30 H6          2.0645   -0.5450    1.3462 H         1 <0>         0.1555
     31 H7          6.4612    0.0321   -0.8388 H         1 <0>         0.1670
     32 H8          5.5397   -1.1282    3.8350 H         1 <0>         0.1644
     33 H9          4.6803   -0.1581    6.1162 H         1 <0>         0.1724
     34 H10         2.4086    1.6537    3.0790 H         1 <0>         0.2049
@<TRIPOS>BOND
     1    1    2 1
     2    1   25 1
     3    1   26 1
     4    1   27 1
     5    2    3 1
     6    2   28 1
     7    2   29 1
     8    3    7 1
     9    3    4 2
    10    4    5 1
    11    5    6 2
    12    6   15 1
    13    6    7 1
    14    7    8 1
    15    8   13 ar
    16    8    9 ar
    17    9   10 ar
    18    9   30 1
    19   10   11 ar
    20   10   20 1
    21   11   12 ar
    22   11   17 1
    23   12   13 ar
    24   12   31 1
    25   13   14 1
    26   14   15 2
    27   15   16 1
    28   17   18 2
    29   17   19 1
    30   20   24 1
    31   20   21 1
    32   21   22 2
    33   21   32 1
    34   22   23 1
    35   22   33 1
    36   23   24 2
    37   24   34 1
@<TRIPOS>MOLECULE
CHEMBL347566
   38    41     0     0     0
SMALL
USER_CHARGES

@<TRIPOS>ATOM
      1 C1          1.3753   -1.5788    1.1196 C.3       1 <0>         0.1048
      2 N1          0.0213   -1.4059    1.6516 N.am      1 <0>        -0.7468
      3 C2         -0.9704   -2.2252    1.2497 C.2       1 <0>         0.6969
      4 O1         -0.7414   -3.1079    0.4455 O.2       1 <0>        -0.5598
      5 N2         -2.2160   -2.0661    1.7391 N.am      1 <0>        -0.6830
      6 C3         -3.2643   -2.8471    1.2479 C.ar      1 <0>         0.1694
      7 C4         -4.5339   -2.3022    1.1225 C.ar      1 <0>        -0.1484
      8 C5         -5.5795   -3.0680    0.6367 C.ar      1 <0>        -0.0700
      9 C6         -5.3603   -4.3922    0.2710 C.ar      1 <0>        -0.0656
     10 C7         -4.0738   -4.9451    0.3979 C.ar      1 <0>        -0.0104
     11 C8         -3.0314   -4.1729    0.8788 C.ar      1 <0>        -0.0897
     12 C9         -4.1573   -6.3543   -0.0644 C.2       1 <0>        -0.0609
     13 C10        -3.1342   -7.2570   -0.1083 C.2       1 <0>        -0.0752
     14 C11        -3.0157   -8.1402   -1.2093 C.2       1 <0>         0.4882
     15 O2         -3.7453   -8.0053   -2.1842 O.co2     1 <0>        -0.6564
     16 O3         -2.1836   -9.0391   -1.1868 O.co2     1 <0>        -0.6719
     17 C12        -5.5514   -6.5920   -0.4649 C.2       1 <0>         0.0968
     18 C13        -6.2657   -5.4345   -0.2681 C.2       1 <0>         0.1091
     19 N3         -7.6130   -5.3797   -0.5665 N.am      1 <0>        -0.6176
     20 C14        -8.2567   -6.4571   -1.0557 C.2       1 <0>         0.6046
     21 C15        -7.5088   -7.7032   -1.2725 C.2       1 <0>         0.0945
     22 N4         -6.1748   -7.7333   -0.9683 N.pl3     1 <0>        -0.3346
     23 C16        -5.7275   -8.9762   -1.2536 C.2       1 <0>         0.0512
     24 C17        -6.7861   -9.6850   -1.7224 C.2       1 <0>        -0.0460
     25 N5         -7.8546   -8.8909   -1.7277 N.2       1 <0>        -0.4113
     26 O4         -9.4446   -6.3992   -1.3149 O.2       1 <0>        -0.5099
     27 H1          2.0359   -0.8303    1.5570 H         1 <0>         0.0762
     28 H2          1.7394   -2.5753    1.3696 H         1 <0>         0.0617
     29 H3          1.3580   -1.4595    0.0363 H         1 <0>         0.0609
     30 H4         -0.1614   -0.7017    2.2932 H         1 <0>         0.3977
     31 H5         -2.3844   -1.4091    2.4325 H         1 <0>         0.4067
     32 H6         -4.7075   -1.2745    1.4059 H         1 <0>         0.1303
     33 H7         -6.5655   -2.6377    0.5419 H         1 <0>         0.1291
     34 H8         -2.0420   -4.5957    0.9719 H         1 <0>         0.1475
     35 H9         -2.4151   -7.2977    0.6965 H         1 <0>         0.1290
     36 H10        -4.7172   -9.3378   -1.1316 H         1 <0>         0.2012
     37 H11        -6.7642  -10.7167   -2.0412 H         1 <0>         0.1834
     38 H12        -8.1022   -4.5547   -0.4215 H         1 <0>         0.4180
@<TRIPOS>BOND
     1    1    2 1
     2    1   27 1
     3    1   28 1
     4    1   29 1
     5    2    3 am
     6    2   30 1
     7    3    4 2
     8    3    5 am
     9    5    6 1
    10    5   31 1
    11    6   11 ar
    12    6    7 ar
    13    7    8 ar
    14    7   32 1
    15    8    9 ar
    16    8   33 1
    17    9   18 1
    18    9   10 ar
    19   10   11 ar
    20   10   12 1
    21   11   34 1
    22   12   13 2
    23   12   17 1
    24   13   14 1
    25   13   35 1
    26   14   15 2
    27   14   16 1
    28   17   22 1
    29   17   18 2
    30   18   19 1
    31   19   20 am
    32   19   38 1
    33   20   21 1
    34   20   26 2
    35   21   25 2
    36   21   22 1
    37   22   23 1
    38   23   24 2
    39   23   36 1
    40   24   25 1
    41   24   37 1
@<TRIPOS>MOLECULE
CHEMBL556986
   34    36     0     0     0
SMALL
USER_CHARGES

@<TRIPOS>ATOM
      1 C1         -0.0167    1.3781    0.0096 C.ar      1 <0>        -0.1214
      2 C2          1.1828    2.0713    0.0019 C.ar      1 <0>        -0.1472
      3 C3          2.3687    1.3411   -0.0134 C.ar      1 <0>         0.1585
      4 C4          2.3055   -0.0468   -0.0202 C.ar      1 <0>         0.0295
      5 N1          1.1424   -0.6665   -0.0124 N.ar      1 <0>        -0.4455
      6 C5          0.0021   -0.0041    0.0020 C.ar      1 <0>         0.0450
      7 N2          3.6035    1.9946   -0.0221 N.pl3     1 <0>        -0.7453
      8 C6          4.8442    1.2158   -0.0381 C.3       1 <0>         0.1632
      9 C7          6.0250    2.1522   -0.0449 C.ar      1 <0>        -0.1107
     10 C8          6.6793    2.4286   -1.2282 C.ar      1 <0>        -0.0186
     11 C9          7.7644    3.2883   -1.2407 C.ar      1 <0>        -0.0391
     12 C10         8.1997    3.8755   -0.0701 C.ar      1 <0>        -0.0462
     13 C11         7.5488    3.6044    1.1282 C.ar      1 <0>         0.1225
     14 C12         6.4510    2.7418    1.1399 C.ar      1 <0>         0.1908
     15 N3          5.7826    2.4623    2.3286 N.am      1 <0>        -0.6338
     16 C13         6.1890    3.0298    3.4823 C.2       1 <0>         0.5108
     17 C14         7.3580    3.9560    3.4688 C.2       1 <0>         0.5119
     18 N4          7.9940    4.2001    2.3049 N.am      1 <0>        -0.6318
     19 O1          7.7396    4.4773    4.4974 O.2       1 <0>        -0.4465
     20 O2          5.6089    2.7893    4.5220 O.2       1 <0>        -0.4407
     21 N5          8.4605    3.5786   -2.5144 N.pl3     1 <0>         0.0336
     22 O3          8.0813    3.0652   -3.5412 O.2       1 <0>        -0.1445
     23 O4          9.4082    4.3291   -2.5279 O.3       1 <0>        -0.1487
     24 H1         -0.9556    1.9115    0.0259 H         1 <0>         0.1365
     25 H2          1.1979    3.1511    0.0072 H         1 <0>         0.1323
     26 H3          3.2185   -0.6235   -0.0324 H         1 <0>         0.1512
     27 H4         -0.9302   -0.5492    0.0084 H         1 <0>         0.1549
     28 H5          3.6393    2.9639   -0.0176 H         1 <0>         0.4038
     29 H6          4.8875    0.5830    0.8483 H         1 <0>         0.0788
     30 H7          4.8701    0.5920   -0.9316 H         1 <0>         0.0944
     31 H8          6.3439    1.9721   -2.1477 H         1 <0>         0.1697
     32 H9          9.0465    4.5456   -0.0847 H         1 <0>         0.1725
     33 H10         8.7553    4.8008    2.2858 H         1 <0>         0.4307
     34 H11         5.0232    1.8588    2.3268 H         1 <0>         0.4293
@<TRIPOS>BOND
     1    1    6 ar
     2    1    2 ar
     3    1   24 1
     4    2    3 ar
     5    2   25 1
     6    3    4 ar
     7    3    7 1
     8    4    5 ar
     9    4   26 1
    10    5    6 ar
    11    6   27 1
    12    7    8 1
    13    7   28 1
    14    8    9 1
    15    8   29 1
    16    8   30 1
    17    9   14 ar
    18    9   10 ar
    19   10   11 ar
    20   10   31 1
    21   11   12 ar
    22   11   21 1
    23   12   13 ar
    24   12   32 1
    25   13   18 1
    26   13   14 ar
    27   14   15 1
    28   15   16 am
    29   15   34 1
    30   16   17 1
    31   16   20 2
    32   17   18 am
    33   17   19 2
    34   18   33 1
    35   21   22 2
    36   21   23 1
@<TRIPOS>MOLECULE
CHEMBL331696
   21    21     0     0     0
SMALL
USER_CHARGES

@<TRIPOS>ATOM
      1 C1         -0.0187    1.5258    0.0104 C.3       1 <0>         0.1201
      2 C2          0.0021   -0.0041    0.0020 C.3       1 <0>        -0.0585
      3 H1          0.4501   -0.3665    0.9272 H         1 <0>         0.1355
      4 C3         -1.4075   -0.5249   -0.1112 C.2       1 <0>         0.5002
      5 O1         -1.7761   -1.0680   -1.1386 O.co2     1 <0>        -0.6680
      6 O2         -2.1794   -0.4033    0.8248 O.co2     1 <0>        -0.6363
      7 N1          0.7922   -0.4768   -1.1426 N.4       1 <0>        -0.6076
      8 N2          1.3557    2.0329    0.0000 N.am      1 <0>        -0.4143
      9 C4          1.9604    2.2723   -1.1774 C.2       1 <0>         0.5995
     10 O3          1.3605    2.0656   -2.2194 O.2       1 <0>        -0.5853
     11 N3          3.2139    2.7356   -1.2141 N.2       1 <0>        -0.6112
     12 C5          3.8538    2.9562   -0.0748 C.2       1 <0>         0.4499
     13 O4          5.1215    3.4248   -0.0764 O.3       1 <0>        -0.6105
     14 C6          3.1844    2.6923    1.1427 C.2       1 <0>         0.0701
     15 N4          1.9574    2.2449    1.1174 N.2       1 <0>        -0.2080
     16 Cl1         3.9846    2.9668    2.6586 Cl        1 <0>        -0.0034
     17 H2         -0.5459    1.8868   -0.8726 H         1 <0>         0.1204
     18 H3         -0.5289    1.8773    0.9072 H         1 <0>         0.1309
     19 H4          0.3774   -0.1413   -1.9991 H         1 <0>         0.4394
     20 H5          1.7359   -0.1280   -1.0669 H         1 <0>         0.4112
     21 H6          0.8059   -1.4857   -1.1482 H         1 <0>         0.4258
@<TRIPOS>BOND
     1    1    2 1
     2    1    8 1
     3    1   17 1
     4    1   18 1
     5    2    3 1
     6    2    4 1
     7    2    7 1
     8    4    5 2
     9    4    6 1
    10    7   19 1
    11    7   20 1
    12    7   21 1
    13    8   15 1
    14    8    9 am
    15    9   10 2
    16    9   11 1
    17   11   12 2
    18   12   13 1
    19   12   14 1
    20   14   15 2
    21   14   16 1
@<TRIPOS>MOLECULE
CHEMBL331696
   22    22     0     0     0
SMALL
USER_CHARGES

@<TRIPOS>ATOM
      1 C1         -0.0187    1.5258    0.0104 C.3       1 <0>         0.1360
      2 C2          0.0021   -0.0041    0.0020 C.3       1 <0>        -0.0663
      3 H1          0.4501   -0.3665    0.9272 H         1 <0>         0.1447
      4 C3         -1.4075   -0.5249   -0.1112 C.2       1 <0>         0.4966
      5 O1         -1.7761   -1.0680   -1.1386 O.co2     1 <0>        -0.6577
      6 O2         -2.1794   -0.4033    0.8248 O.co2     1 <0>        -0.6230
      7 N1          0.7922   -0.4768   -1.1426 N.4       1 <0>        -0.6112
      8 N2          1.3557    2.0329    0.0000 N.am      1 <0>        -0.4493
      9 C4          1.9650    2.2739   -1.1744 C.2       1 <0>         0.6668
     10 O3          1.3664    2.0680   -2.2126 O.2       1 <0>        -0.5262
     11 N3          3.2271    2.7401   -1.2184 N.am      1 <0>        -0.6474
     12 H2          3.6520    2.9090   -2.0739 H         1 <0>         0.4464
     13 C5          3.9013    2.9728   -0.0731 C.2       1 <0>         0.5298
     14 O4          5.0425    3.3946   -0.1046 O.2       1 <0>        -0.4385
     15 C6          3.2411    2.7114    1.2105 C.2       1 <0>         0.1069
     16 N4          2.0152    2.2653    1.2128 N.2       1 <0>        -0.1525
     17 Cl1         4.0766    2.9981    2.7050 Cl        1 <0>         0.0842
     18 H3         -0.5459    1.8868   -0.8726 H         1 <0>         0.1328
     19 H4         -0.5289    1.8773    0.9072 H         1 <0>         0.1511
     20 H5          1.7359   -0.1280   -1.0669 H         1 <0>         0.4007
     21 H6          0.8059   -1.4857   -1.1482 H         1 <0>         0.4364
     22 H7          0.3774   -0.1413   -1.9991 H         1 <0>         0.4399
@<TRIPOS>BOND
     1    1    2 1
     2    1    8 1
     3    1   18 1
     4    1   19 1
     5    2    3 1
     6    2    4 1
     7    2    7 1
     8    4    5 2
     9    4    6 1
    10    7   20 1
    11    7   21 1
    12    7   22 1
    13    8   16 1
    14    8    9 am
    15    9   10 2
    16    9   11 am
    17   11   12 1
    18   11   13 am
    19   13   14 2
    20   13   15 1
    21   15   16 2
    22   15   17 1
@<TRIPOS>MOLECULE
CHEMBL330795
   37    39     0     0     0
SMALL
USER_CHARGES

@<TRIPOS>ATOM
      1 C1         -0.0178    1.4648    0.0101 C.3       1 <0>         0.0114
      2 N1          0.0021   -0.0041    0.0020 N.3       1 <0>        -0.5017
      3 C2         -1.3657   -0.5539    0.1366 C.3       1 <0>         0.0552
      4 C3         -1.2137   -1.8430    0.9135 C.ar      1 <0>        -0.0226
      5 C4         -2.0640   -2.9262    1.0659 C.ar      1 <0>        -0.6690
      6 C5         -1.6870   -4.0022    1.8435 C.ar      1 <0>         0.0035
      7 C6         -0.4488   -3.9962    2.4742 C.ar      1 <0>        -0.0282
      8 C7          0.4154   -2.9036    2.3229 C.ar      1 <0>         0.1771
      9 C8          0.0203   -1.8286    1.5371 C.ar      1 <0>        -0.1369
     10 C9          0.7143   -0.5315    1.1879 C.3       1 <0>         0.0838
     11 N2          1.5692   -3.1580    3.0520 N.pl3     1 <0>        -0.6247
     12 C10         1.4992   -4.3510    3.6645 C.2       1 <0>         0.4910
     13 C11         0.2548   -4.9555    3.3558 C.2       1 <0>        -0.2745
     14 N3         -0.1844   -6.1267    3.7679 N.2       1 <0>        -0.2594
     15 O1          0.5079   -6.8149    4.4963 O.2       1 <0>        -0.1228
     16 O2          2.4558   -4.8861    4.4443 O.3       1 <0>        -0.6062
     17 S1         -3.6331   -2.9296    0.2643 S.o2      1 <0>         2.6948
     18 O3         -3.3980   -2.5698   -1.0901 O.2       1 <0>        -0.9567
     19 O4         -4.2732   -4.1446    0.6297 O.2       1 <0>        -0.9576
     20 N4         -4.5263   -1.7050    0.9312 N.pl3     1 <0>        -1.0059
     21 C12        -4.4756   -0.3611    0.3502 C.3       1 <0>         0.0813
     22 C13        -5.3672   -1.9655    2.1023 C.3       1 <0>         0.0864
     23 H1          1.0047    1.8421    0.0024 H         1 <0>         0.0739
     24 H2         -0.5450    1.8259   -0.8730 H         1 <0>         0.0758
     25 H3         -0.5280    1.8163    0.9069 H         1 <0>         0.0320
     26 H4         -1.9996    0.1434    0.6844 H         1 <0>         0.0698
     27 H5         -1.7891   -0.7551   -0.8475 H         1 <0>         0.1115
     28 H6         -2.3516   -4.8453    1.9615 H         1 <0>         0.1447
     29 H7          1.7609   -0.7175    0.9468 H         1 <0>         0.0882
     30 H8          0.6374    0.1718    2.0171 H         1 <0>         0.0592
     31 H9         -5.2495   -0.2651   -0.4114 H         1 <0>         0.0602
     32 H10        -4.6419    0.3795    1.1325 H         1 <0>         0.0719
     33 H11        -3.4978   -0.1977   -0.1028 H         1 <0>         0.0771
     34 H12        -5.2762   -3.0131    2.3891 H         1 <0>         0.0878
     35 H13        -5.0444   -1.3330    2.9293 H         1 <0>         0.0605
     36 H14        -6.4066   -1.7441    1.8597 H         1 <0>         0.0646
     37 H15         2.3260   -2.5542    3.1107 H         1 <0>         0.4043
@<TRIPOS>BOND
     1    1    2 1
     2    1   23 1
     3    1   24 1
     4    1   25 1
     5    2   10 1
     6    2    3 1
     7    3    4 1
     8    3   26 1
     9    3   27 1
    10    4    9 ar
    11    4    5 ar
    12    5    6 ar
    13    5   17 1
    14    6    7 ar
    15    6   28 1
    16    7   13 1
    17    7    8 ar
    18    8    9 ar
    19    8   11 1
    20    9   10 1
    21   10   29 1
    22   10   30 1
    23   11   12 1
    24   11   37 1
    25   12   13 2
    26   12   16 1
    27   13   14 1
    28   14   15 2
    29   17   18 2
    30   17   19 2
    31   17   20 1
    32   20   21 1
    33   20   22 1
    34   21   31 1
    35   21   32 1
    36   21   33 1
    37   22   34 1
    38   22   35 1
    39   22   36 1
@<TRIPOS>MOLECULE
CHEMBL330795
   38    40     0     0     0
SMALL
USER_CHARGES

@<TRIPOS>ATOM
      1 C1         -0.0178    1.4648    0.0101 C.3       1 <0>        -0.0411
      2 N1          0.0021   -0.0041    0.0020 N.4       1 <0>        -0.3860
      3 C2         -1.3723   -0.5428    0.1129 C.3       1 <0>         0.0221
      4 C3         -1.2468   -1.8228    0.9095 C.ar      1 <0>        -0.0668
      5 C4         -2.1079   -2.8980    1.0566 C.ar      1 <0>        -0.6475
      6 C5         -1.7556   -3.9669    1.8553 C.ar      1 <0>         0.0180
      7 C6         -0.5319   -3.9612    2.5135 C.ar      1 <0>        -0.0026
      8 C7          0.3429   -2.8761    2.3685 C.ar      1 <0>         0.1875
      9 C8         -0.0269   -1.8086    1.5603 C.ar      1 <0>        -0.1618
     10 C9          0.6839   -0.5210    1.2102 C.3       1 <0>         0.0538
     11 N2          1.4784   -3.1290    3.1262 N.pl3     1 <0>        -0.6219
     12 H1          2.2373   -2.5290    3.1954 H         1 <0>         0.4075
     13 C10         1.3867   -4.3139    3.7514 C.2       1 <0>         0.4877
     14 C11         0.1455   -4.9141    3.4223 C.2       1 <0>        -0.2746
     15 N3         -0.3104   -6.0777    3.8379 N.2       1 <0>        -0.2681
     16 O1          0.3608   -6.7613    4.5900 O.2       1 <0>        -0.0720
     17 O2          2.3220   -4.8457    4.5589 O.3       1 <0>        -0.5812
     18 S1         -3.6587   -2.9012    0.2201 S.o2      1 <0>         2.6909
     19 O3         -3.3909   -2.5604   -1.1332 O.2       1 <0>        -0.9572
     20 O4         -4.3154   -4.1069    0.5865 O.2       1 <0>        -0.9392
     21 N4         -4.5579   -1.6619    0.8511 N.pl3     1 <0>        -1.0061
     22 C12        -4.4847   -0.3260    0.2542 C.3       1 <0>         0.0837
     23 C13        -5.4265   -1.9015    2.0062 C.3       1 <0>         0.0792
     24 H2          1.0047    1.8421    0.0024 H         1 <0>         0.1277
     25 H3         -0.5450    1.8259   -0.8730 H         1 <0>         0.1283
     26 H4         -0.5280    1.8163    0.9069 H         1 <0>         0.1236
     27 H5         -2.0132    0.1658    0.6375 H         1 <0>         0.1500
     28 H6         -1.7750   -0.7538   -0.8778 H         1 <0>         0.1557
     29 H7         -2.4284   -4.8041    1.9686 H         1 <0>         0.1571
     30 H8          1.7343   -0.7172    0.9950 H         1 <0>         0.1360
     31 H9          0.5935    0.1935    2.0284 H         1 <0>         0.1426
     32 H10        -5.2407   -0.2347   -0.5257 H         1 <0>         0.0691
     33 H11        -4.6632    0.4257    1.0231 H         1 <0>         0.0795
     34 H12        -3.4959   -0.1752   -0.1788 H         1 <0>         0.0590
     35 H13        -4.8678   -1.7210    2.9246 H         1 <0>         0.0605
     36 H14        -6.2823   -1.2279    1.9632 H         1 <0>         0.0817
     37 H15        -5.7757   -2.9340    1.9903 H         1 <0>         0.0892
     38 H16         0.4527   -0.3473   -0.8330 H         1 <0>         0.4358
@<TRIPOS>BOND
     1    1    2 1
     2    1   24 1
     3    1   25 1
     4    1   26 1
     5    2   10 1
     6    2    3 1
     7    2   38 1
     8    3    4 1
     9    3   27 1
    10    3   28 1
    11    4    9 ar
    12    4    5 ar
    13    5    6 ar
    14    5   18 1
    15    6    7 ar
    16    6   29 1
    17    7   14 1
    18    7    8 ar
    19    8    9 ar
    20    8   11 1
    21    9   10 1
    22   10   30 1
    23   10   31 1
    24   11   12 1
    25   11   13 1
    26   13   14 2
    27   13   17 1
    28   14   15 1
    29   15   16 2
    30   18   19 2
    31   18   20 2
    32   18   21 1
    33   21   22 1
    34   21   23 1
    35   22   32 1
    36   22   33 1
    37   22   34 1
    38   23   35 1
    39   23   36 1
    40   23   37 1
@<TRIPOS>MOLECULE
CHEMBL361515
   46    49     0     0     0
SMALL
USER_CHARGES

@<TRIPOS>ATOM
      1 C1          0.9334   -0.2630    0.7654 C.ar      1 <0>        -0.0922
      2 C2          2.1367    0.4153    0.7461 C.ar      1 <0>        -0.1052
      3 C3          2.2560    1.5949    0.0234 C.ar      1 <0>         0.1758
      4 C4          1.1645    2.0895   -0.6782 C.ar      1 <0>        -0.1160
      5 C5         -0.0366    1.4067   -0.6552 C.ar      1 <0>        -0.0704
      6 C6         -0.1519    0.2313    0.0662 C.ar      1 <0>        -0.1080
      7 Br1        -1.5242    2.0792   -1.6096 Br        1 <0>        -0.0481
      8 N1          3.4738    2.2842    0.0026 N.am      1 <0>        -0.6516
      9 C7          4.6351    1.6022    0.0530 C.2       1 <0>         0.6578
     10 O1          4.6284    0.3876    0.0198 O.2       1 <0>        -0.5524
     11 O2          5.8029    2.2668    0.1403 O.3       1 <0>        -0.3512
     12 C8          6.9949    1.4802    0.1897 C.3       1 <0>         0.1877
     13 C9          8.1930    2.3893    0.2854 C.2       1 <0>        -0.0331
     14 C10         8.1620    3.7348    0.3253 C.2       1 <0>        -0.0060
     15 N2          9.4628    4.1596    0.4122 N.pl3     1 <0>        -0.3911
     16 C11        10.2447    3.0487    0.4221 C.2       1 <0>         0.1867
     17 N3          9.4742    1.9976    0.3513 N.2       1 <0>        -0.4829
     18 C12         9.9026    5.4886    0.4783 C.ar      1 <0>         0.0359
     19 C13         9.4514    6.2915    1.4867 C.ar      1 <0>        -0.0077
     20 C14         9.8903    7.6257    1.5574 C.ar      1 <0>        -0.0208
     21 C15        10.8244    8.1184    0.5411 C.ar      1 <0>         0.1670
     22 C16        11.2517    7.2428   -0.4712 C.ar      1 <0>        -0.0667
     23 C17        10.7981    5.9609   -0.4867 C.ar      1 <0>        -0.1568
     24 C18        11.2670    5.0283   -1.5736 C.3       1 <0>         0.5104
     25 F1         12.0243    5.7437   -2.5073 F         1 <0>        -0.1772
     26 F2         12.0532    4.0162   -1.0126 F         1 <0>        -0.1806
     27 F3         10.1586    4.4592   -2.2099 F         1 <0>        -0.1768
     28 N4         11.2480    9.3847    0.5996 N.ar      1 <0>        -0.5788
     29 C19        10.8197   10.1694    1.5687 C.ar      1 <0>         0.4055
     30 C20         9.9204    9.6945    2.5469 C.ar      1 <0>         0.0379
     31 N5          9.4798    8.4480    2.5213 N.ar      1 <0>        -0.3949
     32 C21         9.4639   10.6050    3.6177 C.2       1 <0>         0.5378
     33 O3          9.8654   11.7594    3.6510 O.co2     1 <0>        -0.6486
     34 O4          8.6848   10.2039    4.4702 O.co2     1 <0>        -0.6901
     35 O5         11.2503   11.4519    1.6266 O.3       1 <0>        -0.6045
     36 H1          0.8417   -1.1829    1.3238 H         1 <0>         0.1370
     37 H2          2.9839    0.0285    1.2930 H         1 <0>         0.1450
     38 H3          1.2541    3.0070   -1.2410 H         1 <0>         0.1399
     39 H4         -1.0915   -0.3008    0.0830 H         1 <0>         0.1336
     40 H5          3.4819    3.2529   -0.0482 H         1 <0>         0.4233
     41 H6          6.9635    0.8275    1.0621 H         1 <0>         0.0824
     42 H7          7.0689    0.8754   -0.7141 H         1 <0>         0.0819
     43 H8          7.2816    4.3596    0.2942 H         1 <0>         0.1761
     44 H9         11.3229    3.0372    0.4829 H         1 <0>         0.2151
     45 H10         8.7628    5.9051    2.2236 H         1 <0>         0.1329
     46 H11        11.9398    7.5846   -1.2302 H         1 <0>         0.1417
@<TRIPOS>BOND
     1    1    6 ar
     2    1    2 ar
     3    1   36 1
     4    2    3 ar
     5    2   37 1
     6    3    4 ar
     7    3    8 1
     8    4    5 ar
     9    4   38 1
    10    5    6 ar
    11    5    7 1
    12    6   39 1
    13    8    9 am
    14    8   40 1
    15    9   10 2
    16    9   11 1
    17   11   12 1
    18   12   13 1
    19   12   41 1
    20   12   42 1
    21   13   17 1
    22   13   14 2
    23   14   15 1
    24   14   43 1
    25   15   16 1
    26   15   18 1
    27   16   17 2
    28   16   44 1
    29   18   23 ar
    30   18   19 ar
    31   19   20 ar
    32   19   45 1
    33   20   31 ar
    34   20   21 ar
    35   21   22 ar
    36   21   28 ar
    37   22   23 ar
    38   22   46 1
    39   23   24 1
    40   24   25 1
    41   24   26 1
    42   24   27 1
    43   28   29 ar
    44   29   30 ar
    45   29   35 1
    46   30   31 ar
    47   30   32 1
    48   32   33 2
    49   32   34 1
@<TRIPOS>MOLECULE
CHEMBL361515
   47    50     0     0     0
SMALL
USER_CHARGES

@<TRIPOS>ATOM
      1 C1          1.2527   -0.6510    1.0902 C.ar      1 <0>        -0.0911
      2 C2          2.4253    0.0771    1.0344 C.ar      1 <0>        -0.1052
      3 C3          2.4823    1.2429    0.2823 C.ar      1 <0>         0.1703
      4 C4          1.3594    1.6736   -0.4120 C.ar      1 <0>        -0.1152
      5 C5          0.1892    0.9412   -0.3524 C.ar      1 <0>        -0.0708
      6 C6          0.1361   -0.2203    0.3983 C.ar      1 <0>        -0.1047
      7 Br1        -1.3410    1.5266   -1.2967 Br        1 <0>        -0.0439
      8 N1          3.6689    1.9826    0.2244 N.am      1 <0>        -0.6499
      9 C7          4.8591    1.3523    0.2752 C.2       1 <0>         0.6572
     10 O1          4.9041    0.1380    0.2737 O.2       1 <0>        -0.5468
     11 O2          5.9983    2.0681    0.3276 O.3       1 <0>        -0.3556
     12 C8          7.2236    1.3346    0.3796 C.3       1 <0>         0.1801
     13 C9          8.3827    2.2961    0.4335 C.2       1 <0>        -0.0091
     14 C10         8.2946    3.6399    0.4389 C.2       1 <0>        -0.0245
     15 N2          9.5767    4.1217    0.4955 N.pl3     1 <0>        -0.4208
     16 C11        10.4057    3.0461    0.5228 C.2       1 <0>         0.2136
     17 N3          9.6803    1.9614    0.4903 N.2       1 <0>        -0.4703
     18 C12         9.9602    5.4708    0.5206 C.ar      1 <0>         0.1269
     19 C13        10.8083    5.9592   -0.4491 C.ar      1 <0>        -0.0312
     20 C14        11.1930    7.3128   -0.4239 C.ar      1 <0>         0.0880
     21 C15        10.7013    8.1536    0.5998 C.ar      1 <0>         0.1434
     22 C16         9.8457    7.6360    1.5679 C.ar      1 <0>        -0.0912
     23 C17         9.4753    6.3111    1.5247 C.ar      1 <0>        -0.1465
     24 C18         8.5435    5.7613    2.5738 C.3       1 <0>         0.5129
     25 F1          8.3130    6.7364    3.5501 F         1 <0>        -0.1728
     26 F2          7.3298    5.4024    1.9776 F         1 <0>        -0.1696
     27 F3          9.1225    4.6346    3.1675 F         1 <0>        -0.1668
     28 N4         11.0682    9.4823    0.6386 N.am      1 <0>        -0.6289
     29 C19        11.8995    9.9616   -0.3123 C.2       1 <0>         0.4908
     30 C20        12.3886    9.0514   -1.3609 C.2       1 <0>         0.1318
     31 N5         12.0163    7.7911   -1.3642 N.2       1 <0>        -0.4009
     32 C21        13.2972    9.5545   -2.4089 C.2       1 <0>         0.5347
     33 O3         13.7038    8.7987   -3.2802 O.co2     1 <0>        -0.6411
     34 O4         13.6439   10.7274   -2.4062 O.co2     1 <0>        -0.6367
     35 O5         12.2392   11.1304   -0.3024 O.2       1 <0>        -0.4533
     36 H1          1.2095   -1.5602    1.6715 H         1 <0>         0.1384
     37 H2          3.2970   -0.2600    1.5756 H         1 <0>         0.1445
     38 H3          1.4006    2.5802   -0.9975 H         1 <0>         0.1393
     39 H4         -0.7795   -0.7913    0.4436 H         1 <0>         0.1355
     40 H5          3.6347    2.9490    0.1478 H         1 <0>         0.4213
     41 H6          7.2324    0.7046    1.2690 H         1 <0>         0.0877
     42 H7          7.3110    0.7097   -0.5092 H         1 <0>         0.0888
     43 H8          7.3878    4.2255    0.4048 H         1 <0>         0.1902
     44 H9         11.4841    3.0822    0.5679 H         1 <0>         0.2163
     45 H10        11.1771    5.3055   -1.2257 H         1 <0>         0.1637
     46 H11         9.4685    8.2760    2.3518 H         1 <0>         0.1565
     47 H12        10.7339   10.0646    1.3385 H         1 <0>         0.4149
@<TRIPOS>BOND
     1    1    6 ar
     2    1    2 ar
     3    1   36 1
     4    2    3 ar
     5    2   37 1
     6    3    4 ar
     7    3    8 1
     8    4    5 ar
     9    4   38 1
    10    5    6 ar
    11    5    7 1
    12    6   39 1
    13    8    9 am
    14    8   40 1
    15    9   10 2
    16    9   11 1
    17   11   12 1
    18   12   13 1
    19   12   41 1
    20   12   42 1
    21   13   17 1
    22   13   14 2
    23   14   15 1
    24   14   43 1
    25   15   16 1
    26   15   18 1
    27   16   17 2
    28   16   44 1
    29   18   23 ar
    30   18   19 ar
    31   19   20 ar
    32   19   45 1
    33   20   31 1
    34   20   21 ar
    35   21   22 ar
    36   21   28 1
    37   22   23 ar
    38   22   46 1
    39   23   24 1
    40   24   25 1
    41   24   26 1
    42   24   27 1
    43   28   29 am
    44   28   47 1
    45   29   30 1
    46   29   35 2
    47   30   31 2
    48   30   32 1
    49   32   33 2
    50   32   34 1
@<TRIPOS>MOLECULE
CHEMBL361515
   47    50     0     0     0
SMALL
USER_CHARGES

@<TRIPOS>ATOM
      1 C1          0.9334   -0.2630    0.7654 C.ar      1 <0>        -0.0912
      2 C2          2.1367    0.4153    0.7461 C.ar      1 <0>        -0.1047
      3 C3          2.2560    1.5949    0.0234 C.ar      1 <0>         0.1702
      4 C4          1.1645    2.0895   -0.6782 C.ar      1 <0>        -0.1148
      5 C5         -0.0366    1.4067   -0.6552 C.ar      1 <0>        -0.0709
      6 C6         -0.1519    0.2313    0.0662 C.ar      1 <0>        -0.1045
      7 Br1        -1.5242    2.0792   -1.6096 Br        1 <0>        -0.0442
      8 N1          3.4738    2.2842    0.0026 N.am      1 <0>        -0.6497
      9 C7          4.6351    1.6022    0.0530 C.2       1 <0>         0.6577
     10 O1          4.6284    0.3876    0.0198 O.2       1 <0>        -0.5474
     11 O2          5.8029    2.2668    0.1403 O.3       1 <0>        -0.3562
     12 C8          6.9949    1.4802    0.1897 C.3       1 <0>         0.1808
     13 C9          8.1930    2.3893    0.2854 C.2       1 <0>        -0.0111
     14 C10         8.1620    3.7348    0.3253 C.2       1 <0>        -0.0077
     15 N2          9.4628    4.1596    0.4122 N.pl3     1 <0>        -0.4241
     16 C11        10.2447    3.0487    0.4221 C.2       1 <0>         0.1966
     17 N3          9.4742    1.9976    0.3513 N.2       1 <0>        -0.4673
     18 C12         9.9026    5.4886    0.4783 C.ar      1 <0>         0.1463
     19 C13         9.4514    6.2915    1.4867 C.ar      1 <0>        -0.0430
     20 C14         9.8903    7.6257    1.5574 C.ar      1 <0>         0.0866
     21 C15        10.8244    8.1184    0.5411 C.ar      1 <0>         0.0923
     22 C16        11.2517    7.2428   -0.4712 C.ar      1 <0>        -0.0025
     23 C17        10.7981    5.9609   -0.4867 C.ar      1 <0>        -0.1731
     24 C18        11.2670    5.0283   -1.5736 C.3       1 <0>         0.5129
     25 F1         12.0243    5.7437   -2.5073 F         1 <0>        -0.1698
     26 F2         12.0532    4.0162   -1.0126 F         1 <0>        -0.1713
     27 F3         10.1586    4.4592   -2.2099 F         1 <0>        -0.1670
     28 N4         11.2480    9.3847    0.5996 N.ar      1 <0>        -0.4583
     29 C19        10.8197   10.1694    1.5687 C.ar      1 <0>         0.3393
     30 C20         9.9204    9.6945    2.5469 C.ar      1 <0>         0.0759
     31 N5          9.4798    8.4480    2.5213 N.ar      1 <0>        -0.3714
     32 C21         9.4639   10.6050    3.6177 C.2       1 <0>         0.5323
     33 O3          9.8654   11.7594    3.6510 O.co2     1 <0>        -0.6472
     34 O4          8.6848   10.2039    4.4702 O.co2     1 <0>        -0.6440
     35 O5         11.2503   11.4519    1.6266 O.3       1 <0>        -0.4421
     36 H1          0.8417   -1.1829    1.3238 H         1 <0>         0.1384
     37 H2          2.9839    0.0285    1.2930 H         1 <0>         0.1444
     38 H3          1.2541    3.0070   -1.2410 H         1 <0>         0.1393
     39 H4         -1.0915   -0.3008    0.0830 H         1 <0>         0.1355
     40 H5          3.4819    3.2529   -0.0482 H         1 <0>         0.4218
     41 H6          6.9635    0.8275    1.0621 H         1 <0>         0.0884
     42 H7          7.0689    0.8754   -0.7141 H         1 <0>         0.0878
     43 H8          7.2816    4.3596    0.2942 H         1 <0>         0.1840
     44 H9         11.3229    3.0372    0.4829 H         1 <0>         0.2214
     45 H10         8.7628    5.9051    2.2236 H         1 <0>         0.1597
     46 H11        11.9398    7.5846   -1.2302 H         1 <0>         0.1641
     47 H12        10.6948   12.0757    1.1392 H         1 <0>         0.4076
@<TRIPOS>BOND
     1    1    6 ar
     2    1    2 ar
     3    1   36 1
     4    2    3 ar
     5    2   37 1
     6    3    4 ar
     7    3    8 1
     8    4    5 ar
     9    4   38 1
    10    5    6 ar
    11    5    7 1
    12    6   39 1
    13    8    9 am
    14    8   40 1
    15    9   10 2
    16    9   11 1
    17   11   12 1
    18   12   13 1
    19   12   41 1
    20   12   42 1
    21   13   17 1
    22   13   14 2
    23   14   15 1
    24   14   43 1
    25   15   16 1
    26   15   18 1
    27   16   17 2
    28   16   44 1
    29   18   23 ar
    30   18   19 ar
    31   19   20 ar
    32   19   45 1
    33   20   31 ar
    34   20   21 ar
    35   21   22 ar
    36   21   28 ar
    37   22   23 ar
    38   22   46 1
    39   23   24 1
    40   24   25 1
    41   24   26 1
    42   24   27 1
    43   28   29 ar
    44   29   30 ar
    45   29   35 1
    46   30   31 ar
    47   30   32 1
    48   32   33 2
    49   32   34 1
    50   35   47 1
@<TRIPOS>MOLECULE
CHEMBL117771
   48    51     0     0     0
SMALL
USER_CHARGES

@<TRIPOS>ATOM
      1 C1          1.0648    1.2582   -0.3538 C.ar      1 <0>        -0.1060
      2 C2          2.3290    1.8178   -0.3467 C.ar      1 <0>        -0.1044
      3 C3          3.4447    1.0044   -0.2881 C.ar      1 <0>        -0.0933
      4 C4          3.2964   -0.3702   -0.2366 C.ar      1 <0>        -0.0753
      5 C5          2.0315   -0.9295   -0.2438 C.ar      1 <0>        -0.0855
      6 C6          0.9161   -0.1150   -0.3024 C.ar      1 <0>        -0.0899
      7 C7          1.8693   -2.4267   -0.1882 C.3       1 <0>         0.1751
      8 N1          2.0236   -2.8836    1.1952 N.am      1 <0>        -0.7042
      9 C8          1.9179   -4.1950    1.4875 C.2       1 <0>         0.6569
     10 O1          1.6946   -4.9984    0.6036 O.2       1 <0>        -0.5721
     11 O2          2.0597   -4.6149    2.7588 O.3       1 <0>        -0.3581
     12 C9          1.9353   -6.0186    2.9962 C.3       1 <0>         0.1879
     13 C10         2.1225   -6.2982    4.4651 C.2       1 <0>        -0.0229
     14 C11         2.3640   -5.3793    5.4192 C.2       1 <0>        -0.0130
     15 N2          2.4662   -6.0572    6.6066 N.pl3     1 <0>        -0.3967
     16 C12         2.2818   -7.3745    6.3303 C.2       1 <0>         0.2379
     17 N3          2.0717   -7.5048    5.0488 N.2       1 <0>        -0.4844
     18 C13         2.7141   -5.4971    7.8671 C.ar      1 <0>         0.0516
     19 C14         1.8571   -4.5540    8.3585 C.ar      1 <0>        -0.0078
     20 C15         2.1015   -3.9895    9.6232 C.ar      1 <0>        -0.0042
     21 C16         3.2752   -4.4321   10.3812 C.ar      1 <0>         0.1631
     22 C17         4.1188   -5.4060    9.8209 C.ar      1 <0>        -0.0441
     23 C18         3.8302   -5.9208    8.5958 C.ar      1 <0>        -0.0213
     24 N4          4.7222   -6.9503    8.0167 N.pl3     1 <0>         0.0415
     25 O3          5.6178   -7.4172    8.6813 O.2       1 <0>        -0.1778
     26 O4          4.5552   -7.3244    6.8793 O.3       1 <0>        -0.1659
     27 N5          3.5162   -3.9022   11.5843 N.ar      1 <0>        -0.5710
     28 C19         2.6958   -2.9911   12.0695 C.ar      1 <0>         0.4047
     29 C20         1.5657   -2.5657   11.3395 C.ar      1 <0>         0.0540
     30 N6          1.2956   -3.0671   10.1461 N.ar      1 <0>        -0.3963
     31 C21         0.6698   -1.5426   11.9178 C.2       1 <0>         0.5365
     32 O5          0.9105   -1.0720   13.0203 O.co2     1 <0>        -0.6444
     33 O6         -0.3122   -1.1668   11.2939 O.co2     1 <0>        -0.6853
     34 O7          2.9416   -2.4553   13.2886 O.3       1 <0>        -0.5949
     35 Br1         4.8226   -1.4838   -0.1571 Br        1 <0>        -0.0373
     36 H1          0.1930    1.8944   -0.3951 H         1 <0>         0.1327
     37 H2          2.4447    2.8909   -0.3873 H         1 <0>         0.1333
     38 H3          4.4322    1.4416   -0.2829 H         1 <0>         0.1350
     39 H4         -0.0717   -0.5517   -0.3076 H         1 <0>         0.1365
     40 H5          0.8785   -2.6986   -0.5522 H         1 <0>         0.0848
     41 H6          2.6279   -2.8978   -0.8132 H         1 <0>         0.0875
     42 H7          2.2019   -2.2423    1.9007 H         1 <0>         0.4099
     43 H8          0.9454   -6.3532    2.6859 H         1 <0>         0.0792
     44 H9          2.6948   -6.5524    2.4250 H         1 <0>         0.0800
     45 H10         2.4593   -4.3130    5.2766 H         1 <0>         0.1733
     46 H11         2.3016   -8.1787    7.0509 H         1 <0>         0.1945
     47 H12         0.9991   -4.2441    7.7805 H         1 <0>         0.1445
     48 H13         4.9894   -5.7466   10.3617 H         1 <0>         0.1558
@<TRIPOS>BOND
     1    1    6 ar
     2    1    2 ar
     3    1   36 1
     4    2    3 ar
     5    2   37 1
     6    3    4 ar
     7    3   38 1
     8    4    5 ar
     9    4   35 1
    10    5    6 ar
    11    5    7 1
    12    6   39 1
    13    7    8 1
    14    7   40 1
    15    7   41 1
    16    8    9 am
    17    8   42 1
    18    9   10 2
    19    9   11 1
    20   11   12 1
    21   12   13 1
    22   12   43 1
    23   12   44 1
    24   13   17 1
    25   13   14 2
    26   14   15 1
    27   14   45 1
    28   15   16 1
    29   15   18 1
    30   16   17 2
    31   16   46 1
    32   18   23 ar
    33   18   19 ar
    34   19   20 ar
    35   19   47 1
    36   20   30 ar
    37   20   21 ar
    38   21   22 ar
    39   21   27 ar
    40   22   23 ar
    41   22   48 1
    42   23   24 1
    43   24   25 2
    44   24   26 1
    45   27   28 ar
    46   28   29 ar
    47   28   34 1
    48   29   30 ar
    49   29   31 1
    50   31   32 2
    51   31   33 1
@<TRIPOS>MOLECULE
CHEMBL117771
   49    52     0     0     0
SMALL
USER_CHARGES

@<TRIPOS>ATOM
      1 C1          1.0648    1.2582   -0.3538 C.ar      1 <0>        -0.1053
      2 C2          2.3290    1.8178   -0.3467 C.ar      1 <0>        -0.1030
      3 C3          3.4447    1.0044   -0.2881 C.ar      1 <0>        -0.0931
      4 C4          3.2964   -0.3702   -0.2366 C.ar      1 <0>        -0.0758
      5 C5          2.0315   -0.9295   -0.2438 C.ar      1 <0>        -0.0872
      6 C6          0.9161   -0.1150   -0.3024 C.ar      1 <0>        -0.0898
      7 C7          1.8693   -2.4267   -0.1882 C.3       1 <0>         0.1742
      8 N1          2.0236   -2.8836    1.1952 N.am      1 <0>        -0.7023
      9 C8          1.9179   -4.1950    1.4875 C.2       1 <0>         0.6566
     10 O1          1.6946   -4.9984    0.6036 O.2       1 <0>        -0.5666
     11 O2          2.0597   -4.6149    2.7588 O.3       1 <0>        -0.3626
     12 C9          1.9353   -6.0186    2.9962 C.3       1 <0>         0.1809
     13 C10         2.1225   -6.2982    4.4651 C.2       1 <0>        -0.0006
     14 C11         2.3640   -5.3793    5.4192 C.2       1 <0>        -0.0161
     15 N2          2.4662   -6.0572    6.6066 N.pl3     1 <0>        -0.4272
     16 C12         2.2818   -7.3745    6.3303 C.2       1 <0>         0.2447
     17 N3          2.0717   -7.5048    5.0488 N.2       1 <0>        -0.4689
     18 C13         2.7141   -5.4971    7.8671 C.ar      1 <0>         0.1573
     19 C14         1.8571   -4.5540    8.3585 C.ar      1 <0>        -0.0408
     20 C15         2.1015   -3.9895    9.6232 C.ar      1 <0>         0.0987
     21 C16         3.2752   -4.4321   10.3812 C.ar      1 <0>         0.0871
     22 C17         4.1188   -5.4060    9.8209 C.ar      1 <0>         0.0210
     23 C18         3.8302   -5.9208    8.5958 C.ar      1 <0>        -0.0396
     24 N4          4.7222   -6.9503    8.0167 N.pl3     1 <0>         0.0324
     25 O3          5.6178   -7.4172    8.6813 O.2       1 <0>        -0.1505
     26 O4          4.5552   -7.3244    6.8793 O.3       1 <0>        -0.1392
     27 N5          3.5162   -3.9022   11.5843 N.ar      1 <0>        -0.4510
     28 C19         2.6958   -2.9911   12.0695 C.ar      1 <0>         0.3429
     29 C20         1.5657   -2.5657   11.3395 C.ar      1 <0>         0.0883
     30 N6          1.2956   -3.0671   10.1461 N.ar      1 <0>        -0.3714
     31 C21         0.6698   -1.5426   11.9178 C.2       1 <0>         0.5312
     32 O5          0.9105   -1.0720   13.0203 O.co2     1 <0>        -0.6432
     33 O6         -0.3122   -1.1668   11.2939 O.co2     1 <0>        -0.6397
     34 O7          2.9416   -2.4553   13.2886 O.3       1 <0>        -0.4395
     35 Br1         4.8226   -1.4838   -0.1571 Br        1 <0>        -0.0381
     36 H1          0.1930    1.8944   -0.3951 H         1 <0>         0.1336
     37 H2          2.4447    2.8909   -0.3873 H         1 <0>         0.1344
     38 H3          4.4322    1.4416   -0.2829 H         1 <0>         0.1356
     39 H4         -0.0717   -0.5517   -0.3076 H         1 <0>         0.1367
     40 H5          0.8785   -2.6986   -0.5522 H         1 <0>         0.0864
     41 H6          2.6279   -2.8978   -0.8132 H         1 <0>         0.0890
     42 H7          2.2019   -2.2423    1.9007 H         1 <0>         0.4088
     43 H8          0.9454   -6.3532    2.6859 H         1 <0>         0.0853
     44 H9          2.6948   -6.5524    2.4250 H         1 <0>         0.0860
     45 H10         2.4593   -4.3130    5.2766 H         1 <0>         0.1811
     46 H11         2.3016   -8.1787    7.0509 H         1 <0>         0.2018
     47 H12         0.9991   -4.2441    7.7805 H         1 <0>         0.1699
     48 H13         4.9894   -5.7466   10.3617 H         1 <0>         0.1773
     49 H14         3.4963   -1.6636   13.2656 H         1 <0>         0.4099
@<TRIPOS>BOND
     1    1    6 ar
     2    1    2 ar
     3    1   36 1
     4    2    3 ar
     5    2   37 1
     6    3    4 ar
     7    3   38 1
     8    4    5 ar
     9    4   35 1
    10    5    6 ar
    11    5    7 1
    12    6   39 1
    13    7    8 1
    14    7   40 1
    15    7   41 1
    16    8    9 am
    17    8   42 1
    18    9   10 2
    19    9   11 1
    20   11   12 1
    21   12   13 1
    22   12   43 1
    23   12   44 1
    24   13   17 1
    25   13   14 2
    26   14   15 1
    27   14   45 1
    28   15   16 1
    29   15   18 1
    30   16   17 2
    31   16   46 1
    32   18   23 ar
    33   18   19 ar
    34   19   20 ar
    35   19   47 1
    36   20   30 ar
    37   20   21 ar
    38   21   22 ar
    39   21   27 ar
    40   22   23 ar
    41   22   48 1
    42   23   24 1
    43   24   25 2
    44   24   26 1
    45   27   28 ar
    46   28   29 ar
    47   28   34 1
    48   29   30 ar
    49   29   31 1
    50   31   32 2
    51   31   33 1
    52   34   49 1
@<TRIPOS>MOLECULE
CHEMBL388746
   37    39     0     0     0
SMALL
USER_CHARGES

@<TRIPOS>ATOM
      1 C1         -0.0167    1.3781    0.0096 C.ar      1 <0>        -0.1016
      2 C2          1.1709    2.0855    0.0021 C.ar      1 <0>        -0.1258
      3 C3          2.3773    1.4107   -0.0130 C.ar      1 <0>        -0.0862
      4 C4          2.3960    0.0285   -0.0201 C.ar      1 <0>        -0.1314
      5 C5          1.2084   -0.6789   -0.0117 C.ar      1 <0>        -0.0850
      6 C6          0.0021   -0.0041    0.0020 C.ar      1 <0>        -0.1234
      7 C7          3.7112   -0.7071   -0.0376 C.3       1 <0>         0.1714
      8 N1          4.1518   -0.9524    1.3379 N.pl3     1 <0>        -0.1344
      9 N2          4.8850   -0.1571    2.0384 N.2       1 <0>        -0.2820
     10 C8          5.0707   -0.7153    3.2198 C.2       1 <0>         0.2276
     11 N3          4.4144   -1.8855    3.1984 N.2       1 <0>        -0.2123
     12 N4          3.8626   -1.9934    2.0376 N.2       1 <0>        -0.0428
     13 C9          5.8511   -0.1596    4.3475 C.2       1 <0>         0.1362
     14 C10         6.0287   -0.7540    5.5574 C.2       1 <0>        -0.1644
     15 C11         6.8283    0.0910    6.3486 C.2       1 <0>         0.5451
     16 N5          7.1215    1.1802    5.6083 N.am      1 <0>        -0.5751
     17 O1          6.5061    1.0128    4.3436 O.3       1 <0>        -0.0440
     18 O2          7.1899   -0.1219    7.4950 O.2       1 <0>        -0.4838
     19 C12         5.4660   -2.0871    5.9783 C.3       1 <0>        -0.0302
     20 C13         6.5097   -3.1798    5.7388 C.3       1 <0>         0.0338
     21 C14         5.9060   -4.5266    6.0434 C.2       1 <0>         0.4674
     22 O3          5.0502   -4.9911    5.3098 O.co2     1 <0>        -0.6895
     23 O4          6.2735   -5.1517    7.0236 O.co2     1 <0>        -0.7019
     24 N6          7.6667   -2.9523    6.6149 N.3       1 <0>        -0.8264
     25 H1         -0.9591    1.9053    0.0259 H         1 <0>         0.1254
     26 H2          1.1563    3.1654    0.0076 H         1 <0>         0.1266
     27 H3          3.3051    1.9634   -0.0196 H         1 <0>         0.1288
     28 H4          1.2231   -1.7588   -0.0176 H         1 <0>         0.1324
     29 H5         -0.9258   -0.5567    0.0082 H         1 <0>         0.1284
     30 H6          3.5884   -1.6586   -0.5549 H         1 <0>         0.1300
     31 H7          4.4573   -0.1052   -0.5563 H         1 <0>         0.1255
     32 H8          5.2096   -2.0553    7.0372 H         1 <0>         0.0746
     33 H9          4.5716   -2.3047    5.3944 H         1 <0>         0.1003
     34 H10         6.8315   -3.1530    4.6977 H         1 <0>         0.0653
     35 H11         7.3943   -2.9725    7.5862 H         1 <0>         0.3399
     36 H12         8.3975   -3.6232    6.4303 H         1 <0>         0.3273
     37 H13         7.6585    1.9375    5.8895 H         1 <0>         0.4538
@<TRIPOS>BOND
     1    1    6 ar
     2    1    2 ar
     3    1   25 1
     4    2    3 ar
     5    2   26 1
     6    3    4 ar
     7    3   27 1
     8    4    5 ar
     9    4    7 1
    10    5    6 ar
    11    5   28 1
    12    6   29 1
    13    7    8 1
    14    7   30 1
    15    7   31 1
    16    8   12 1
    17    8    9 1
    18    9   10 2
    19   10   11 1
    20   10   13 1
    21   11   12 2
    22   13   14 2
    23   13   17 1
    24   14   15 1
    25   14   19 1
    26   15   16 am
    27   15   18 2
    28   16   17 1
    29   16   37 1
    30   19   20 1
    31   19   32 1
    32   19   33 1
    33   20   21 1
    34   20   24 1
    35   20   34 1
    36   21   22 2
    37   21   23 1
    38   24   35 1
    39   24   36 1
@<TRIPOS>MOLECULE
CHEMBL388746
   37    39     0     0     0
SMALL
USER_CHARGES

@<TRIPOS>ATOM
      1 C1         -0.0167    1.3781    0.0096 C.ar      1 <0>        -0.1005
      2 C2          1.1709    2.0855    0.0021 C.ar      1 <0>        -0.1256
      3 C3          2.3773    1.4107   -0.0130 C.ar      1 <0>        -0.0861
      4 C4          2.3960    0.0285   -0.0201 C.ar      1 <0>        -0.1331
      5 C5          1.2084   -0.6789   -0.0117 C.ar      1 <0>        -0.0847
      6 C6          0.0021   -0.0041    0.0020 C.ar      1 <0>        -0.1232
      7 C7          3.7112   -0.7071   -0.0376 C.3       1 <0>         0.1704
      8 N1          4.1518   -0.9524    1.3379 N.pl3     1 <0>        -0.1293
      9 N2          4.8850   -0.1571    2.0384 N.2       1 <0>        -0.2756
     10 C8          5.0707   -0.7153    3.2198 C.2       1 <0>         0.2249
     11 N3          4.4144   -1.8855    3.1984 N.2       1 <0>        -0.2248
     12 N4          3.8626   -1.9934    2.0376 N.2       1 <0>        -0.0374
     13 C9          5.8511   -0.1596    4.3475 C.2       1 <0>         0.1461
     14 C10         6.0287   -0.7540    5.5574 C.2       1 <0>        -0.1894
     15 C11         6.8283    0.0910    6.3486 C.2       1 <0>         0.5368
     16 N5          7.1215    1.1802    5.6083 N.am      1 <0>        -0.5693
     17 O1          6.5061    1.0128    4.3436 O.3       1 <0>        -0.0383
     18 O2          7.1899   -0.1219    7.4950 O.2       1 <0>        -0.4901
     19 C12         5.4660   -2.0871    5.9783 C.3       1 <0>        -0.0752
     20 C13         6.5097   -3.1798    5.7388 C.3       1 <0>         0.0384
     21 C14         5.9948   -4.4919    6.2720 C.2       1 <0>         0.5083
     22 O3          5.3508   -5.2331    5.5493 O.co2     1 <0>        -0.6844
     23 O4          6.2222   -4.8122    7.4262 O.co2     1 <0>        -0.6997
     24 N6          6.7669   -3.3040    4.2978 N.3       1 <0>        -0.8219
     25 H1         -0.9591    1.9053    0.0259 H         1 <0>         0.1259
     26 H2          1.1563    3.1654    0.0076 H         1 <0>         0.1270
     27 H3          3.3051    1.9634   -0.0196 H         1 <0>         0.1288
     28 H4          1.2231   -1.7588   -0.0176 H         1 <0>         0.1327
     29 H5         -0.9258   -0.5567    0.0082 H         1 <0>         0.1289
     30 H6          3.5884   -1.6586   -0.5549 H         1 <0>         0.1320
     31 H7          4.4573   -0.1052   -0.5563 H         1 <0>         0.1271
     32 H8          5.2096   -2.0553    7.0372 H         1 <0>         0.0870
     33 H9          4.5716   -2.3047    5.3944 H         1 <0>         0.0942
     34 H10         7.4350   -2.9172    6.2516 H         1 <0>         0.0707
     35 H11         5.9237   -3.5472    3.7997 H         1 <0>         0.3494
     36 H12         7.1735   -2.4575    3.9288 H         1 <0>         0.3031
     37 H13         7.6585    1.9375    5.8895 H         1 <0>         0.4570
@<TRIPOS>BOND
     1    1    6 ar
     2    1    2 ar
     3    1   25 1
     4    2    3 ar
     5    2   26 1
     6    3    4 ar
     7    3   27 1
     8    4    5 ar
     9    4    7 1
    10    5    6 ar
    11    5   28 1
    12    6   29 1
    13    7    8 1
    14    7   30 1
    15    7   31 1
    16    8   12 1
    17    8    9 1
    18    9   10 2
    19   10   11 1
    20   10   13 1
    21   11   12 2
    22   13   14 2
    23   13   17 1
    24   14   15 1
    25   14   19 1
    26   15   16 am
    27   15   18 2
    28   16   17 1
    29   16   37 1
    30   19   20 1
    31   19   32 1
    32   19   33 1
    33   20   21 1
    34   20   24 1
    35   20   34 1
    36   21   22 2
    37   21   23 1
    38   24   35 1
    39   24   36 1
@<TRIPOS>MOLECULE
CHEMBL25214
   75    78     0     0     0
SMALL
USER_CHARGES

@<TRIPOS>ATOM
      1 C1         -0.0164    1.3567    0.0095 C.ar      1 <0>        -0.1173
      2 C2          1.1685    2.0906    0.0021 C.ar      1 <0>        -0.1055
      3 C3          2.3785    1.4679   -0.0132 C.ar      1 <0>        -0.1174
      4 C4          2.4378    0.0637   -0.0214 C.ar      1 <0>        -0.0324
      5 C5          1.2328   -0.6827   -0.0134 C.ar      1 <0>        -0.0525
      6 C6          0.0021   -0.0041    0.0020 C.ar      1 <0>        -0.0979
      7 C7          1.2920   -2.0865   -0.0210 C.ar      1 <0>        -0.0922
      8 C8          2.5022   -2.7094   -0.0359 C.ar      1 <0>        -0.1206
      9 C9          3.6867   -1.9757   -0.0433 C.ar      1 <0>        -0.0968
     10 C10         3.6681   -0.6146   -0.0367 C.ar      1 <0>        -0.0724
     11 C11         4.9603    0.1606   -0.0459 C.3       1 <0>        -0.0984
     12 C12         5.3414    0.5186    1.3675 C.2       1 <0>         0.5190
     13 O1          4.6334    0.1777    2.2913 O.2       1 <0>        -0.5067
     14 N1          6.4691    1.2175    1.6049 N.am      1 <0>        -0.6258
     15 C13         7.3338    1.6427    0.4958 C.3       1 <0>         0.1033
     16 C14         8.7613    1.1593    0.7702 C.3       1 <0>        -0.1286
     17 C15         9.2100    1.6607    2.1448 C.3       1 <0>        -0.1152
     18 C16         8.2897    1.0865    3.2244 C.3       1 <0>        -0.1429
     19 C17         6.8539    1.5739    2.9774 C.3       1 <0>         0.1106
     20 C18        10.6479    1.2089    2.4077 C.3       1 <0>        -0.0058
     21 N2         11.1201    1.7892    3.6719 N.4       1 <0>        -0.5120
     22 C19        12.5007    1.3554    3.9244 C.3       1 <0>        -0.0093
     23 C20        12.9925    1.9599    5.2411 C.3       1 <0>        -0.1516
     24 C21        14.4304    1.5081    5.5040 C.3       1 <0>        -0.1505
     25 C22        14.9222    2.1125    6.8207 C.3       1 <0>        -0.0125
     26 N3         16.3028    1.6787    7.0732 N.4       1 <0>        -0.5236
     27 C23        16.7750    2.2591    8.3374 C.3       1 <0>        -0.0292
     28 C24        18.2129    1.8073    8.6003 C.3       1 <0>        -0.0009
     29 C25        18.7812    2.5518    9.8268 C.3       1 <0>        -0.1353
     30 C26        20.2537    2.8222    9.4202 C.3       1 <0>        -0.1441
     31 C27        20.1148    3.0883    7.9005 C.3       1 <0>        -0.0123
     32 N4         19.0654    2.1507    7.4473 N.4       1 <0>        -0.5262
     33 H1         -0.9634    1.8756    0.0259 H         1 <0>         0.1276
     34 H2          1.1258    3.1698    0.0084 H         1 <0>         0.1234
     35 H3          3.2883    2.0497   -0.0195 H         1 <0>         0.1157
     36 H4         -0.9241   -0.5595    0.0082 H         1 <0>         0.1317
     37 H5          0.3820   -2.6682   -0.0147 H         1 <0>         0.1316
     38 H6          2.5450   -3.7886   -0.0417 H         1 <0>         0.1266
     39 H7          4.6338   -2.4947   -0.0548 H         1 <0>         0.1178
     40 H8          5.7467   -0.4491   -0.4909 H         1 <0>         0.1043
     41 H9          4.8331    1.0722   -0.6299 H         1 <0>         0.1068
     42 H10         6.9734    1.2073   -0.4362 H         1 <0>         0.1017
     43 H11         7.3242    2.7301    0.4212 H         1 <0>         0.0779
     44 H12         8.7858    0.0697    0.7546 H         1 <0>         0.0826
     45 H13         9.4312    1.5498    0.0041 H         1 <0>         0.0911
     46 H14         9.1617    2.7494    2.1678 H         1 <0>         0.1002
     47 H15         8.3186   -0.0024    3.1857 H         1 <0>         0.0853
     48 H16         8.6239    1.4251    4.2051 H         1 <0>         0.0648
     49 H17         6.8060    2.6558    3.1010 H         1 <0>         0.0722
     50 H18         6.1767    1.0931    3.6833 H         1 <0>         0.1040
     51 H19        10.6810    0.1213    2.4725 H         1 <0>         0.1359
     52 H20        11.2889    1.5440    1.5923 H         1 <0>         0.1379
     53 H21        11.0895    2.7960    3.6120 H         1 <0>         0.4310
     54 H22        12.5338    0.2679    3.9891 H         1 <0>         0.1367
     55 H23        13.1417    1.6906    3.1090 H         1 <0>         0.1367
     56 H24        12.9594    3.0474    5.1764 H         1 <0>         0.1024
     57 H25        12.3515    1.6248    6.0565 H         1 <0>         0.1031
     58 H26        14.4635    0.4205    5.5687 H         1 <0>         0.1042
     59 H27        15.0714    1.8432    4.6886 H         1 <0>         0.1012
     60 H28        14.8892    3.2001    6.7560 H         1 <0>         0.1457
     61 H29        14.2812    1.7774    7.6362 H         1 <0>         0.1499
     62 H30        16.3334    0.6720    7.1331 H         1 <0>         0.4414
     63 H31        16.7420    3.3466    8.2727 H         1 <0>         0.1628
     64 H32        16.1340    1.9240    9.1528 H         1 <0>         0.1834
     65 H33        18.2378    0.7312    8.7724 H         1 <0>         0.1713
     66 H34        18.2482    3.4884    9.9901 H         1 <0>         0.1137
     67 H35        18.7362    1.9216   10.7151 H         1 <0>         0.1337
     68 H36        20.6465    3.6985    9.9358 H         1 <0>         0.1353
     69 H37        20.8775    1.9483    9.6082 H         1 <0>         0.1117
     70 H38        19.8061    4.1184    7.7223 H         1 <0>         0.1444
     71 H39        21.0557    2.8798    7.3912 H         1 <0>         0.1541
     72 H40        19.4932    1.3139    7.0802 H         1 <0>         0.4458
     73 H41        16.8962    1.9890    6.3184 H         1 <0>         0.4156
     74 H42        10.5267    1.4790    4.4268 H         1 <0>         0.4299
     75 H43        18.5064    2.5877    6.7300 H         1 <0>         0.4097
@<TRIPOS>BOND
     1    1    6 ar
     2    1    2 ar
     3    1   33 1
     4    2    3 ar
     5    2   34 1
     6    3    4 ar
     7    3   35 1
     8    4   10 ar
     9    4    5 ar
    10    5    6 ar
    11    5    7 ar
    12    6   36 1
    13    7    8 ar
    14    7   37 1
    15    8    9 ar
    16    8   38 1
    17    9   10 ar
    18    9   39 1
    19   10   11 1
    20   11   12 1
    21   11   40 1
    22   11   41 1
    23   12   13 2
    24   12   14 am
    25   14   19 1
    26   14   15 1
    27   15   16 1
    28   15   42 1
    29   15   43 1
    30   16   17 1
    31   16   44 1
    32   16   45 1
    33   17   18 1
    34   17   20 1
    35   17   46 1
    36   18   19 1
    37   18   47 1
    38   18   48 1
    39   19   49 1
    40   19   50 1
    41   20   21 1
    42   20   51 1
    43   20   52 1
    44   21   22 1
    45   21   53 1
    46   21   74 1
    47   22   23 1
    48   22   54 1
    49   22   55 1
    50   23   24 1
    51   23   56 1
    52   23   57 1
    53   24   25 1
    54   24   58 1
    55   24   59 1
    56   25   26 1
    57   25   60 1
    58   25   61 1
    59   26   27 1
    60   26   62 1
    61   26   73 1
    62   27   28 1
    63   27   63 1
    64   27   64 1
    65   28   32 1
    66   28   29 1
    67   28   65 1
    68   29   30 1
    69   29   66 1
    70   29   67 1
    71   30   31 1
    72   30   68 1
    73   30   69 1
    74   31   32 1
    75   31   70 1
    76   31   71 1
    77   32   72 1
    78   32   75 1
@<TRIPOS>MOLECULE
CHEMBL25214
   74    77     0     0     0
SMALL
USER_CHARGES

@<TRIPOS>ATOM
      1 C1         -0.0164    1.3567    0.0095 C.ar      1 <0>        -0.1176
      2 C2          1.1685    2.0906    0.0021 C.ar      1 <0>        -0.1074
      3 C3          2.3785    1.4679   -0.0132 C.ar      1 <0>        -0.1150
      4 C4          2.4378    0.0637   -0.0214 C.ar      1 <0>        -0.0326
      5 C5          1.2328   -0.6827   -0.0134 C.ar      1 <0>        -0.0523
      6 C6          0.0021   -0.0041    0.0020 C.ar      1 <0>        -0.0993
      7 C7          1.2920   -2.0865   -0.0210 C.ar      1 <0>        -0.0949
      8 C8          2.5022   -2.7094   -0.0359 C.ar      1 <0>        -0.1190
      9 C9          3.6867   -1.9757   -0.0433 C.ar      1 <0>        -0.0978
     10 C10         3.6681   -0.6146   -0.0367 C.ar      1 <0>        -0.0691
     11 C11         4.9603    0.1606   -0.0459 C.3       1 <0>        -0.0995
     12 C12         5.3414    0.5186    1.3675 C.2       1 <0>         0.5188
     13 O1          4.6334    0.1777    2.2913 O.2       1 <0>        -0.5097
     14 N1          6.4691    1.2175    1.6049 N.am      1 <0>        -0.6242
     15 C13         7.3338    1.6427    0.4958 C.3       1 <0>         0.1038
     16 C14         8.7613    1.1593    0.7702 C.3       1 <0>        -0.1283
     17 C15         9.2100    1.6607    2.1448 C.3       1 <0>        -0.1150
     18 C16         8.2897    1.0865    3.2244 C.3       1 <0>        -0.1440
     19 C17         6.8539    1.5739    2.9774 C.3       1 <0>         0.1113
     20 C18        10.6479    1.2089    2.4077 C.3       1 <0>        -0.0055
     21 N2         11.1201    1.7892    3.6719 N.4       1 <0>        -0.5117
     22 C19        12.5007    1.3554    3.9244 C.3       1 <0>        -0.0082
     23 C20        12.9925    1.9599    5.2411 C.3       1 <0>        -0.1509
     24 C21        14.4304    1.5081    5.5040 C.3       1 <0>        -0.1176
     25 C22        14.9222    2.1125    6.8207 C.3       1 <0>         0.0559
     26 N3         16.3028    1.6787    7.0732 N.3       1 <0>        -0.7093
     27 C23        16.8095    2.2411    8.3322 C.3       1 <0>         0.0289
     28 C24        18.2465    1.7681    8.5602 C.3       1 <0>         0.0295
     29 C25        18.8506    2.4937    9.7809 C.3       1 <0>        -0.1385
     30 C26        20.3176    2.7486    9.3453 C.3       1 <0>        -0.1446
     31 C27        20.1499    3.0306    7.8314 C.3       1 <0>        -0.0102
     32 N4         19.0787    2.1110    7.3924 N.4       1 <0>        -0.5080
     33 H1         -0.9634    1.8756    0.0259 H         1 <0>         0.1265
     34 H2          1.1258    3.1698    0.0084 H         1 <0>         0.1232
     35 H3          3.2883    2.0497   -0.0195 H         1 <0>         0.1167
     36 H4         -0.9241   -0.5595    0.0082 H         1 <0>         0.1306
     37 H5          0.3820   -2.6682   -0.0147 H         1 <0>         0.1306
     38 H6          2.5450   -3.7886   -0.0417 H         1 <0>         0.1262
     39 H7          4.6338   -2.4947   -0.0548 H         1 <0>         0.1187
     40 H8          5.7467   -0.4491   -0.4909 H         1 <0>         0.1047
     41 H9          4.8331    1.0722   -0.6299 H         1 <0>         0.1063
     42 H10         6.9734    1.2073   -0.4362 H         1 <0>         0.0996
     43 H11         7.3242    2.7301    0.4212 H         1 <0>         0.0775
     44 H12         8.7858    0.0697    0.7546 H         1 <0>         0.0818
     45 H13         9.4312    1.5498    0.0041 H         1 <0>         0.0908
     46 H14         9.1617    2.7494    2.1678 H         1 <0>         0.0993
     47 H15         8.3186   -0.0024    3.1857 H         1 <0>         0.0849
     48 H16         8.6239    1.4251    4.2051 H         1 <0>         0.0677
     49 H17         6.8060    2.6558    3.1010 H         1 <0>         0.0724
     50 H18         6.1767    1.0931    3.6833 H         1 <0>         0.1031
     51 H19        10.6810    0.1213    2.4725 H         1 <0>         0.1337
     52 H20        11.2889    1.5440    1.5923 H         1 <0>         0.1362
     53 H21        11.0895    2.7960    3.6120 H         1 <0>         0.4290
     54 H22        12.5338    0.2679    3.9891 H         1 <0>         0.1324
     55 H23        13.1417    1.6906    3.1090 H         1 <0>         0.1337
     56 H24        12.9594    3.0474    5.1764 H         1 <0>         0.0913
     57 H25        12.3515    1.6248    6.0565 H         1 <0>         0.0894
     58 H26        14.4635    0.4205    5.5687 H         1 <0>         0.0767
     59 H27        15.0714    1.8432    4.6886 H         1 <0>         0.0852
     60 H28        14.8892    3.2001    6.7560 H         1 <0>         0.0849
     61 H29        14.2812    1.7774    7.6362 H         1 <0>         0.0485
     62 H30        16.7895    3.3296    8.2779 H         1 <0>         0.1023
     63 H31        16.1816    1.9069    9.1581 H         1 <0>         0.0834
     64 H32        18.2607    0.6903    8.7220 H         1 <0>         0.1396
     65 H33        18.3337    3.4357    9.9639 H         1 <0>         0.1020
     66 H34        18.8161    1.8560   10.6642 H         1 <0>         0.1156
     67 H35        20.7329    3.6149    9.8602 H         1 <0>         0.1204
     68 H36        20.9335    1.8649    9.5121 H         1 <0>         0.1012
     69 H37        19.8512    4.0662    7.6691 H         1 <0>         0.1330
     70 H38        21.0769    2.8144    7.3002 H         1 <0>         0.1387
     71 H39        19.4875    1.2721    7.0087 H         1 <0>         0.4301
     72 H40        16.3712    0.6721    7.0734 H         1 <0>         0.3524
     73 H41        10.5267    1.4790    4.4268 H         1 <0>         0.4273
     74 H42        18.5104    2.5619    6.6911 H         1 <0>         0.4344
@<TRIPOS>BOND
     1    1    6 ar
     2    1    2 ar
     3    1   33 1
     4    2    3 ar
     5    2   34 1
     6    3    4 ar
     7    3   35 1
     8    4   10 ar
     9    4    5 ar
    10    5    6 ar
    11    5    7 ar
    12    6   36 1
    13    7    8 ar
    14    7   37 1
    15    8    9 ar
    16    8   38 1
    17    9   10 ar
    18    9   39 1
    19   10   11 1
    20   11   12 1
    21   11   40 1
    22   11   41 1
    23   12   13 2
    24   12   14 am
    25   14   19 1
    26   14   15 1
    27   15   16 1
    28   15   42 1
    29   15   43 1
    30   16   17 1
    31   16   44 1
    32   16   45 1
    33   17   18 1
    34   17   20 1
    35   17   46 1
    36   18   19 1
    37   18   47 1
    38   18   48 1
    39   19   49 1
    40   19   50 1
    41   20   21 1
    42   20   51 1
    43   20   52 1
    44   21   22 1
    45   21   53 1
    46   21   73 1
    47   22   23 1
    48   22   54 1
    49   22   55 1
    50   23   24 1
    51   23   56 1
    52   23   57 1
    53   24   25 1
    54   24   58 1
    55   24   59 1
    56   25   26 1
    57   25   60 1
    58   25   61 1
    59   26   27 1
    60   26   72 1
    61   27   28 1
    62   27   62 1
    63   27   63 1
    64   28   32 1
    65   28   29 1
    66   28   64 1
    67   29   30 1
    68   29   65 1
    69   29   66 1
    70   30   31 1
    71   30   67 1
    72   30   68 1
    73   31   32 1
    74   31   69 1
    75   31   70 1
    76   32   71 1
    77   32   74 1
@<TRIPOS>MOLECULE
CHEMBL25214
   75    78     0     0     0
SMALL
USER_CHARGES

@<TRIPOS>ATOM
      1 C1         -0.0164    1.3567    0.0095 C.ar      1 <0>        -0.1219
      2 C2          1.1685    2.0906    0.0021 C.ar      1 <0>        -0.1093
      3 C3          2.3785    1.4679   -0.0132 C.ar      1 <0>        -0.1167
      4 C4          2.4378    0.0637   -0.0214 C.ar      1 <0>        -0.0317
      5 C5          1.2328   -0.6827   -0.0134 C.ar      1 <0>        -0.0527
      6 C6          0.0021   -0.0041    0.0020 C.ar      1 <0>        -0.0943
      7 C7          1.2920   -2.0865   -0.0210 C.ar      1 <0>        -0.0939
      8 C8          2.5022   -2.7094   -0.0359 C.ar      1 <0>        -0.1162
      9 C9          3.6867   -1.9757   -0.0433 C.ar      1 <0>        -0.0926
     10 C10         3.6681   -0.6146   -0.0367 C.ar      1 <0>        -0.0747
     11 C11         4.9603    0.1606   -0.0459 C.3       1 <0>        -0.0982
     12 C12         5.3414    0.5186    1.3675 C.2       1 <0>         0.5192
     13 O1          4.6334    0.1777    2.2913 O.2       1 <0>        -0.5069
     14 N1          6.4691    1.2175    1.6049 N.am      1 <0>        -0.6253
     15 C13         7.3338    1.6427    0.4958 C.3       1 <0>         0.1033
     16 C14         7.5606    3.1542    0.5988 C.3       1 <0>        -0.1290
     17 C15         8.1087    3.4903    1.9876 C.3       1 <0>        -0.1151
     18 C16         7.0892    3.0810    3.0531 C.3       1 <0>        -0.1430
     19 C17         6.8539    1.5739    2.9774 C.3       1 <0>         0.1102
     20 C18         8.3690    4.9950    2.0825 C.3       1 <0>        -0.0058
     21 N2          9.0060    5.3015    3.3702 N.4       1 <0>        -0.5120
     22 C19         9.2559    6.7462    3.4613 C.3       1 <0>        -0.0093
     23 C20         9.9194    7.0655    4.8025 C.3       1 <0>        -0.1516
     24 C21        10.1797    8.5702    4.8974 C.3       1 <0>        -0.1503
     25 C22        10.8431    8.8894    6.2386 C.3       1 <0>        -0.0125
     26 N3         11.0930   10.3341    6.3296 N.4       1 <0>        -0.5238
     27 C23        11.7300   10.6407    7.6174 C.3       1 <0>        -0.0265
     28 C24        11.9903   12.1454    7.7122 C.3       1 <0>        -0.0022
     29 C25        12.8731   12.4633    8.9448 C.3       1 <0>        -0.1342
     30 C26        13.5193   13.8108    8.5281 C.3       1 <0>        -0.1440
     31 C27        13.7259   13.6420    7.0082 C.3       1 <0>        -0.0113
     32 N4         12.7826   12.6048    6.5517 N.4       1 <0>        -0.5287
     33 H1         -0.9634    1.8756    0.0259 H         1 <0>         0.1259
     34 H2          1.1258    3.1698    0.0084 H         1 <0>         0.1194
     35 H3          3.2883    2.0497   -0.0195 H         1 <0>         0.1129
     36 H4         -0.9241   -0.5595    0.0082 H         1 <0>         0.1318
     37 H5          0.3820   -2.6682   -0.0147 H         1 <0>         0.1323
     38 H6          2.5450   -3.7886   -0.0417 H         1 <0>         0.1290
     39 H7          4.6338   -2.4947   -0.0548 H         1 <0>         0.1217
     40 H8          5.7467   -0.4491   -0.4909 H         1 <0>         0.1074
     41 H9          4.8331    1.0722   -0.6299 H         1 <0>         0.1042
     42 H10         8.2907    1.1245    0.5591 H         1 <0>         0.0783
     43 H11         6.8517    1.4094   -0.4536 H         1 <0>         0.1016
     44 H12         8.2771    3.4672   -0.1606 H         1 <0>         0.0913
     45 H13         6.6156    3.6752    0.4449 H         1 <0>         0.0824
     46 H14         9.0411    2.9497    2.1506 H         1 <0>         0.1004
     47 H15         7.4701    3.3420    4.0404 H         1 <0>         0.0656
     48 H16         6.1486    3.6027    2.8760 H         1 <0>         0.0850
     49 H17         6.0552    1.2953    3.6648 H         1 <0>         0.1038
     50 H18         7.7707    1.0500    3.2476 H         1 <0>         0.0715
     51 H19         9.0270    5.3018    1.2695 H         1 <0>         0.1379
     52 H20         7.4238    5.5326    2.0076 H         1 <0>         0.1359
     53 H21         8.3969    5.0174    4.1228 H         1 <0>         0.4299
     54 H22         9.9139    7.0531    2.6483 H         1 <0>         0.1366
     55 H23         8.3107    7.2839    3.3864 H         1 <0>         0.1366
     56 H24         9.2614    6.7586    5.6155 H         1 <0>         0.1030
     57 H25        10.8646    6.5278    4.8774 H         1 <0>         0.1023
     58 H26        10.8376    8.8770    4.0844 H         1 <0>         0.1011
     59 H27         9.2345    9.1078    4.8225 H         1 <0>         0.1040
     60 H28        10.1851    8.5826    7.0516 H         1 <0>         0.1493
     61 H29        11.7883    8.3518    6.3135 H         1 <0>         0.1455
     62 H30        11.7021   10.6182    5.5770 H         1 <0>         0.4177
     63 H31        11.0720   10.3338    8.4304 H         1 <0>         0.1831
     64 H32        12.6752   10.1030    7.6923 H         1 <0>         0.1629
     65 H33        11.0478   12.6900    7.7678 H         1 <0>         0.1733
     66 H34        12.2642   12.5829    9.8408 H         1 <0>         0.1361
     67 H35        13.6322   11.6947    9.0901 H         1 <0>         0.1128
     68 H36        12.8453   14.6419    8.7355 H         1 <0>         0.1122
     69 H37        14.4747   13.9526    9.0335 H         1 <0>         0.1305
     70 H38        13.5174   14.5829    6.4989 H         1 <0>         0.1493
     71 H39        14.7496   13.3272    6.8058 H         1 <0>         0.1467
     72 H40        13.2949   11.8281    6.1613 H         1 <0>         0.4220
     73 H41        10.2181   10.8319    6.2603 H         1 <0>         0.4409
     74 H42         9.8810    4.8038    3.4396 H         1 <0>         0.4311
     75 H43        12.1669   12.9903    5.8514 H         1 <0>         0.4357
@<TRIPOS>BOND
     1    1    6 ar
     2    1    2 ar
     3    1   33 1
     4    2    3 ar
     5    2   34 1
     6    3    4 ar
     7    3   35 1
     8    4   10 ar
     9    4    5 ar
    10    5    6 ar
    11    5    7 ar
    12    6   36 1
    13    7    8 ar
    14    7   37 1
    15    8    9 ar
    16    8   38 1
    17    9   10 ar
    18    9   39 1
    19   10   11 1
    20   11   12 1
    21   11   40 1
    22   11   41 1
    23   12   13 2
    24   12   14 am
    25   14   19 1
    26   14   15 1
    27   15   16 1
    28   15   42 1
    29   15   43 1
    30   16   17 1
    31   16   44 1
    32   16   45 1
    33   17   18 1
    34   17   20 1
    35   17   46 1
    36   18   19 1
    37   18   47 1
    38   18   48 1
    39   19   49 1
    40   19   50 1
    41   20   21 1
    42   20   51 1
    43   20   52 1
    44   21   22 1
    45   21   53 1
    46   21   74 1
    47   22   23 1
    48   22   54 1
    49   22   55 1
    50   23   24 1
    51   23   56 1
    52   23   57 1
    53   24   25 1
    54   24   58 1
    55   24   59 1
    56   25   26 1
    57   25   60 1
    58   25   61 1
    59   26   27 1
    60   26   62 1
    61   26   73 1
    62   27   28 1
    63   27   63 1
    64   27   64 1
    65   28   32 1
    66   28   29 1
    67   28   65 1
    68   29   30 1
    69   29   66 1
    70   29   67 1
    71   30   31 1
    72   30   68 1
    73   30   69 1
    74   31   32 1
    75   31   70 1
    76   31   71 1
    77   32   72 1
    78   32   75 1
@<TRIPOS>MOLECULE
CHEMBL25214
   74    77     0     0     0
SMALL
USER_CHARGES

@<TRIPOS>ATOM
      1 C1         -0.0164    1.3567    0.0095 C.ar      1 <0>        -0.1208
      2 C2          1.1685    2.0906    0.0021 C.ar      1 <0>        -0.1099
      3 C3          2.3785    1.4679   -0.0132 C.ar      1 <0>        -0.1146
      4 C4          2.4378    0.0637   -0.0214 C.ar      1 <0>        -0.0320
      5 C5          1.2328   -0.6827   -0.0134 C.ar      1 <0>        -0.0525
      6 C6          0.0021   -0.0041    0.0020 C.ar      1 <0>        -0.0968
      7 C7          1.2920   -2.0865   -0.0210 C.ar      1 <0>        -0.0961
      8 C8          2.5022   -2.7094   -0.0359 C.ar      1 <0>        -0.1160
      9 C9          3.6867   -1.9757   -0.0433 C.ar      1 <0>        -0.0948
     10 C10         3.6681   -0.6146   -0.0367 C.ar      1 <0>        -0.0708
     11 C11         4.9603    0.1606   -0.0459 C.3       1 <0>        -0.0993
     12 C12         5.3414    0.5186    1.3675 C.2       1 <0>         0.5189
     13 O1          4.6334    0.1777    2.2913 O.2       1 <0>        -0.5096
     14 N1          6.4691    1.2175    1.6049 N.am      1 <0>        -0.6237
     15 C13         7.3338    1.6427    0.4958 C.3       1 <0>         0.1038
     16 C14         7.5606    3.1542    0.5988 C.3       1 <0>        -0.1288
     17 C15         8.1087    3.4903    1.9876 C.3       1 <0>        -0.1149
     18 C16         7.0892    3.0810    3.0531 C.3       1 <0>        -0.1443
     19 C17         6.8539    1.5739    2.9774 C.3       1 <0>         0.1109
     20 C18         8.3690    4.9950    2.0825 C.3       1 <0>        -0.0055
     21 N2          9.0060    5.3015    3.3702 N.4       1 <0>        -0.5116
     22 C19         9.2559    6.7462    3.4613 C.3       1 <0>        -0.0083
     23 C20         9.9194    7.0655    4.8025 C.3       1 <0>        -0.1508
     24 C21        10.1797    8.5702    4.8974 C.3       1 <0>        -0.1180
     25 C22        10.8431    8.8894    6.2386 C.3       1 <0>         0.0556
     26 N3         11.0930   10.3341    6.3296 N.3       1 <0>        -0.6950
     27 C23        11.7308   10.6785    7.6073 C.3       1 <0>         0.0359
     28 C24        11.9747   12.1879    7.6651 C.3       1 <0>         0.0303
     29 C25        12.8581   12.5451    8.8865 C.3       1 <0>        -0.1396
     30 C26        13.4879   13.8892    8.4353 C.3       1 <0>        -0.1435
     31 C27        13.6912   13.6862    6.9191 C.3       1 <0>        -0.0108
     32 N4         12.7580   12.6280    6.4910 N.4       1 <0>        -0.5156
     33 H1         -0.9634    1.8756    0.0259 H         1 <0>         0.1254
     34 H2          1.1258    3.1698    0.0084 H         1 <0>         0.1204
     35 H3          3.2883    2.0497   -0.0195 H         1 <0>         0.1145
     36 H4         -0.9241   -0.5595    0.0082 H         1 <0>         0.1307
     37 H5          0.3820   -2.6682   -0.0147 H         1 <0>         0.1311
     38 H6          2.5450   -3.7886   -0.0417 H         1 <0>         0.1278
     39 H7          4.6338   -2.4947   -0.0548 H         1 <0>         0.1215
     40 H8          5.7467   -0.4491   -0.4909 H         1 <0>         0.1069
     41 H9          4.8331    1.0722   -0.6299 H         1 <0>         0.1044
     42 H10         8.2907    1.1245    0.5591 H         1 <0>         0.0778
     43 H11         6.8517    1.4094   -0.4536 H         1 <0>         0.0995
     44 H12         8.2771    3.4672   -0.1606 H         1 <0>         0.0908
     45 H13         6.6156    3.6752    0.4449 H         1 <0>         0.0818
     46 H14         9.0411    2.9497    2.1506 H         1 <0>         0.0992
     47 H15         7.4701    3.3420    4.0404 H         1 <0>         0.0687
     48 H16         6.1486    3.6027    2.8760 H         1 <0>         0.0848
     49 H17         6.0552    1.2953    3.6648 H         1 <0>         0.1030
     50 H18         7.7707    1.0500    3.2476 H         1 <0>         0.0716
     51 H19         9.0270    5.3018    1.2695 H         1 <0>         0.1359
     52 H20         7.4238    5.5326    2.0076 H         1 <0>         0.1341
     53 H21         8.3969    5.0174    4.1228 H         1 <0>         0.4278
     54 H22         9.9139    7.0531    2.6483 H         1 <0>         0.1325
     55 H23         8.3107    7.2839    3.3864 H         1 <0>         0.1338
     56 H24         9.2614    6.7586    5.6155 H         1 <0>         0.0921
     57 H25        10.8646    6.5278    4.8774 H         1 <0>         0.0891
     58 H26        10.8376    8.8770    4.0844 H         1 <0>         0.0741
     59 H27         9.2345    9.1078    4.8225 H         1 <0>         0.0882
     60 H28        10.1851    8.5826    7.0516 H         1 <0>         0.0896
     61 H29        11.7883    8.3518    6.3135 H         1 <0>         0.0458
     62 H30        11.0790   10.3841    8.4298 H         1 <0>         0.1236
     63 H31        12.6822   10.1533    7.6917 H         1 <0>         0.0620
     64 H32        11.0264   12.7233    7.7110 H         1 <0>         0.1529
     65 H33        12.2508   12.6794    9.7816 H         1 <0>         0.1220
     66 H34        13.6261   11.7886    9.0475 H         1 <0>         0.0999
     67 H35        12.8053   14.7176    8.6251 H         1 <0>         0.1037
     68 H36        14.4432   14.0536    8.9337 H         1 <0>         0.1170
     69 H37        13.4706   14.6122    6.3881 H         1 <0>         0.1375
     70 H38        14.7177   13.3779    6.7206 H         1 <0>         0.1340
     71 H39        13.2776   11.8478    6.1176 H         1 <0>         0.4204
     72 H40        11.6480   10.6549    5.5504 H         1 <0>         0.3299
     73 H41         9.8810    4.8038    3.4396 H         1 <0>         0.4286
     74 H42        12.1358   12.9897    5.7839 H         1 <0>         0.4336
@<TRIPOS>BOND
     1    1    6 ar
     2    1    2 ar
     3    1   33 1
     4    2    3 ar
     5    2   34 1
     6    3    4 ar
     7    3   35 1
     8    4   10 ar
     9    4    5 ar
    10    5    6 ar
    11    5    7 ar
    12    6   36 1
    13    7    8 ar
    14    7   37 1
    15    8    9 ar
    16    8   38 1
    17    9   10 ar
    18    9   39 1
    19   10   11 1
    20   11   12 1
    21   11   40 1
    22   11   41 1
    23   12   13 2
    24   12   14 am
    25   14   19 1
    26   14   15 1
    27   15   16 1
    28   15   42 1
    29   15   43 1
    30   16   17 1
    31   16   44 1
    32   16   45 1
    33   17   18 1
    34   17   20 1
    35   17   46 1
    36   18   19 1
    37   18   47 1
    38   18   48 1
    39   19   49 1
    40   19   50 1
    41   20   21 1
    42   20   51 1
    43   20   52 1
    44   21   22 1
    45   21   53 1
    46   21   73 1
    47   22   23 1
    48   22   54 1
    49   22   55 1
    50   23   24 1
    51   23   56 1
    52   23   57 1
    53   24   25 1
    54   24   58 1
    55   24   59 1
    56   25   26 1
    57   25   60 1
    58   25   61 1
    59   26   27 1
    60   26   72 1
    61   27   28 1
    62   27   62 1
    63   27   63 1
    64   28   32 1
    65   28   29 1
    66   28   64 1
    67   29   30 1
    68   29   65 1
    69   29   66 1
    70   30   31 1
    71   30   67 1
    72   30   68 1
    73   31   32 1
    74   31   69 1
    75   31   70 1
    76   32   71 1
    77   32   74 1
@<TRIPOS>MOLECULE
CHEMBL22248
   81    84     0     0     0
SMALL
USER_CHARGES

@<TRIPOS>ATOM
      1 C1         -0.4811   -0.6934    3.2789 C.3       1 <0>        -0.0583
      2 N1         -0.4478   -1.1764    1.8920 N.4       1 <0>        -0.3897
      3 C2          0.1038   -2.5476    1.8558 C.3       1 <0>        -0.0133
      4 C3          0.9322   -2.6064    0.5482 C.3       1 <0>        -0.1444
      5 C4          1.5440   -1.1815    0.5006 C.3       1 <0>        -0.1461
      6 C5          0.4186   -0.3003    1.0822 C.3       1 <0>         0.0285
      7 C6          1.0193    0.7965    1.9637 C.3       1 <0>        -0.1779
      8 C7          1.8525    1.7456    1.1002 C.3       1 <0>        -0.0083
      9 N2          2.3282    2.8659    1.9228 N.4       1 <0>        -0.5097
     10 C8          3.1282    3.7772    1.0937 C.3       1 <0>        -0.0101
     11 C9          3.6236    4.9439    1.9505 C.3       1 <0>        -0.1495
     12 C10         4.4568    5.8931    1.0870 C.3       1 <0>        -0.1506
     13 C11         4.9522    7.0599    1.9438 C.3       1 <0>        -0.0096
     14 N3          5.7523    7.9711    1.1147 N.4       1 <0>        -0.5118
     15 C12         6.2279    9.0914    1.9373 C.3       1 <0>        -0.0058
     16 C13         7.0611   10.0405    1.0738 C.3       1 <0>        -0.1152
     17 C14         8.3249    9.3202    0.5982 C.3       1 <0>        -0.1430
     18 C15         9.1394   10.2620   -0.2942 C.3       1 <0>         0.1105
     19 N4          9.3956   11.5074    0.4422 N.am      1 <0>        -0.6253
     20 C16         8.2565   12.2332    1.0204 C.3       1 <0>         0.1033
     21 C17         7.4519   11.2693    1.8981 C.3       1 <0>        -0.1287
     22 C18        10.6516   11.9748    0.5848 C.2       1 <0>         0.5191
     23 O1         11.5835   11.3662    0.1030 O.2       1 <0>        -0.5075
     24 C19        10.8981   13.2538    1.3428 C.3       1 <0>        -0.0986
     25 C20        12.3750   13.5529    1.3565 C.ar      1 <0>        -0.0719
     26 C21        13.1434   13.1578    2.4084 C.ar      1 <0>        -0.0968
     27 C22        14.5105   13.4255    2.4387 C.ar      1 <0>        -0.1204
     28 C23        15.1173   14.0903    1.4175 C.ar      1 <0>        -0.0925
     29 C24        14.3567   14.5139    0.3147 C.ar      1 <0>        -0.0525
     30 C25        12.9672   14.2361    0.2810 C.ar      1 <0>        -0.0323
     31 C26        12.2075   14.6548   -0.8250 C.ar      1 <0>        -0.1171
     32 C27        12.8154   15.3141   -1.8486 C.ar      1 <0>        -0.1058
     33 C28        14.1830   15.5815   -1.8184 C.ar      1 <0>        -0.1174
     34 C29        14.9478   15.2032   -0.7581 C.ar      1 <0>        -0.0981
     35 H1         -0.9072    0.3095    3.3043 H         1 <0>         0.1235
     36 H2         -1.0933   -1.3636    3.8824 H         1 <0>         0.1348
     37 H3          0.5324   -0.6678    3.6792 H         1 <0>         0.1229
     38 H4          0.7454   -2.7215    2.7197 H         1 <0>         0.1365
     39 H5         -0.7026   -3.2804    1.8274 H         1 <0>         0.1456
     40 H6          1.7127   -3.3644    0.6142 H         1 <0>         0.1256
     41 H7          0.2892   -2.7843   -0.3138 H         1 <0>         0.1067
     42 H8          2.4379   -1.1249    1.1218 H         1 <0>         0.1004
     43 H9          1.7681   -0.8925   -0.5262 H         1 <0>         0.1186
     44 H10        -0.1586    0.1462    0.2726 H         1 <0>         0.1495
     45 H11         0.2171    1.3545    2.4467 H         1 <0>         0.1150
     46 H12         1.6557    0.3437    2.7240 H         1 <0>         0.1159
     47 H13         2.7071    1.2077    0.6898 H         1 <0>         0.1452
     48 H14         1.2387    2.1285    0.2849 H         1 <0>         0.1449
     49 H15         1.5371    3.3638    2.3027 H         1 <0>         0.4334
     50 H16         3.9828    3.2392    0.6834 H         1 <0>         0.1401
     51 H17         2.5143    4.1600    0.2784 H         1 <0>         0.1402
     52 H18         2.7690    5.4819    2.3609 H         1 <0>         0.1015
     53 H19         4.2374    4.5611    2.7658 H         1 <0>         0.1015
     54 H20         5.3115    5.3551    0.6767 H         1 <0>         0.1007
     55 H21         3.8430    6.2759    0.2717 H         1 <0>         0.1012
     56 H22         4.0976    7.5978    2.3541 H         1 <0>         0.1370
     57 H23         5.5661    6.6770    2.7591 H         1 <0>         0.1362
     58 H24         6.5434    7.4732    0.7349 H         1 <0>         0.4291
     59 H25         5.3733    9.6293    2.3477 H         1 <0>         0.1379
     60 H26         6.8417    8.7085    2.7526 H         1 <0>         0.1356
     61 H27         6.4753   10.3542    0.2098 H         1 <0>         0.1001
     62 H28         8.9237    9.0281    1.4610 H         1 <0>         0.0850
     63 H29         8.0459    8.4322    0.0310 H         1 <0>         0.0655
     64 H30        10.0868    9.7901   -0.5547 H         1 <0>         0.1036
     65 H31         8.5772   10.4830   -1.2014 H         1 <0>         0.0718
     66 H32         8.6214   13.0619    1.6272 H         1 <0>         0.1015
     67 H33         7.6223   12.6149    0.2204 H         1 <0>         0.0780
     68 H34         6.5515   11.7686    2.2560 H         1 <0>         0.0913
     69 H35         8.0589   10.9589    2.7486 H         1 <0>         0.0825
     70 H36        10.3661   14.0720    0.8576 H         1 <0>         0.1068
     71 H37        10.5401   13.1441    2.3665 H         1 <0>         0.1045
     72 H38        12.6866   12.6293    3.2319 H         1 <0>         0.1179
     73 H39        15.0974   13.1010    3.2852 H         1 <0>         0.1265
     74 H40        16.1777   14.2914    1.4549 H         1 <0>         0.1314
     75 H41        11.1470   14.4539   -0.8625 H         1 <0>         0.1159
     76 H42        12.2294   15.6347   -2.6972 H         1 <0>         0.1234
     77 H43        14.6407   16.1062   -2.6440 H         1 <0>         0.1274
     78 H44        16.0062   15.4179   -0.7482 H         1 <0>         0.1316
     79 H45         5.1840    8.3256    0.3600 H         1 <0>         0.4308
     80 H46        -1.3815   -1.1779    1.5096 H         1 <0>         0.4378
     81 H47         2.8964    2.5115    2.6775 H         1 <0>         0.4338
@<TRIPOS>BOND
     1    1    2 1
     2    1   35 1
     3    1   36 1
     4    1   37 1
     5    2    6 1
     6    2    3 1
     7    2   80 1
     8    3    4 1
     9    3   38 1
    10    3   39 1
    11    4    5 1
    12    4   40 1
    13    4   41 1
    14    5    6 1
    15    5   42 1
    16    5   43 1
    17    6    7 1
    18    6   44 1
    19    7    8 1
    20    7   45 1
    21    7   46 1
    22    8    9 1
    23    8   47 1
    24    8   48 1
    25    9   10 1
    26    9   49 1
    27    9   81 1
    28   10   11 1
    29   10   50 1
    30   10   51 1
    31   11   12 1
    32   11   52 1
    33   11   53 1
    34   12   13 1
    35   12   54 1
    36   12   55 1
    37   13   14 1
    38   13   56 1
    39   13   57 1
    40   14   15 1
    41   14   58 1
    42   14   79 1
    43   15   16 1
    44   15   59 1
    45   15   60 1
    46   16   21 1
    47   16   17 1
    48   16   61 1
    49   17   18 1
    50   17   62 1
    51   17   63 1
    52   18   19 1
    53   18   64 1
    54   18   65 1
    55   19   20 1
    56   19   22 am
    57   20   21 1
    58   20   66 1
    59   20   67 1
    60   21   68 1
    61   21   69 1
    62   22   23 2
    63   22   24 1
    64   24   25 1
    65   24   70 1
    66   24   71 1
    67   25   30 ar
    68   25   26 ar
    69   26   27 ar
    70   26   72 1
    71   27   28 ar
    72   27   73 1
    73   28   29 ar
    74   28   74 1
    75   29   34 ar
    76   29   30 ar
    77   30   31 ar
    78   31   32 ar
    79   31   75 1
    80   32   33 ar
    81   32   76 1
    82   33   34 ar
    83   33   77 1
    84   34   78 1
@<TRIPOS>MOLECULE
CHEMBL22248
   80    83     0     0     0
SMALL
USER_CHARGES

@<TRIPOS>ATOM
      1 C1         -0.6224   -0.7908    3.2086 C.3       1 <0>         0.0097
      2 N1         -0.4711   -1.2396    1.8181 N.3       1 <0>        -0.5236
      3 C2          0.0906   -2.6060    1.7605 C.3       1 <0>         0.0359
      4 C3          0.9635   -2.6213    0.4809 C.3       1 <0>        -0.1325
      5 C4          1.5669   -1.1921    0.4960 C.3       1 <0>        -0.1473
      6 C5          0.4164   -0.3350    1.0644 C.3       1 <0>         0.0776
      7 C6          0.9793    0.7387    1.9978 C.3       1 <0>        -0.1712
      8 C7          1.8340    1.7184    1.1913 C.3       1 <0>        -0.0089
      9 N2          2.2738    2.8165    2.0624 N.4       1 <0>        -0.5099
     10 C8          3.0945    3.7571    1.2880 C.3       1 <0>        -0.0097
     11 C9          3.5525    4.9008    2.1952 C.3       1 <0>        -0.1491
     12 C10         4.4073    5.8805    1.3887 C.3       1 <0>        -0.1497
     13 C11         4.8653    7.0242    2.2960 C.3       1 <0>        -0.0095
     14 N3          5.6861    7.9648    1.5216 N.4       1 <0>        -0.5116
     15 C12         6.1258    9.0629    2.3927 C.3       1 <0>        -0.0058
     16 C13         6.9806   10.0426    1.5862 C.3       1 <0>        -0.1151
     17 C14         8.2647    9.3447    1.1322 C.3       1 <0>        -0.1437
     18 C15         9.1018   10.3178    0.2960 C.3       1 <0>         0.1108
     19 N4          9.3242   11.5422    1.0771 N.am      1 <0>        -0.6245
     20 C16         8.1612   12.2433    1.6381 C.3       1 <0>         0.1035
     21 C17         7.3347   11.2486    2.4593 C.3       1 <0>        -0.1287
     22 C18        10.5713   12.0130    1.2757 C.2       1 <0>         0.5189
     23 O1         11.5232   11.4249    0.8077 O.2       1 <0>        -0.5088
     24 C19        10.7831   13.2702    2.0792 C.3       1 <0>        -0.0992
     25 C20        12.2566   13.5780    2.1514 C.ar      1 <0>        -0.0701
     26 C21        12.9923   13.1564    3.2163 C.ar      1 <0>        -0.0973
     27 C22        14.3556   13.4315    3.3005 C.ar      1 <0>        -0.1194
     28 C23        14.9913   14.1303    2.3204 C.ar      1 <0>        -0.0941
     29 C24        14.2650   14.5820    1.2057 C.ar      1 <0>        -0.0524
     30 C25        12.8793   14.2967    1.1171 C.ar      1 <0>        -0.0324
     31 C26        12.1541   14.7435   -0.0008 C.ar      1 <0>        -0.1157
     32 C27        12.7910   15.4370   -0.9834 C.ar      1 <0>        -0.1069
     33 C28        14.1549   15.7118   -0.8994 C.ar      1 <0>        -0.1175
     34 C29        14.8865   15.3067    0.1743 C.ar      1 <0>        -0.0990
     35 H1         -1.0720    0.2021    3.2231 H         1 <0>         0.0704
     36 H2         -1.2639   -1.4879    3.7477 H         1 <0>         0.0788
     37 H3          0.3563   -0.7535    3.6869 H         1 <0>         0.0295
     38 H4          0.7036   -2.8016    2.6403 H         1 <0>         0.0518
     39 H5         -0.7094   -3.3423    1.6830 H         1 <0>         0.0924
     40 H6          1.7464   -3.3764    0.5512 H         1 <0>         0.0830
     41 H7          0.3513   -2.7773   -0.4074 H         1 <0>         0.0840
     42 H8          2.4387   -1.1488    1.1489 H         1 <0>         0.0680
     43 H9          1.8238   -0.8716   -0.5136 H         1 <0>         0.0805
     44 H10        -0.1360    0.1319    0.2490 H         1 <0>         0.0971
     45 H11         0.1574    1.2770    2.4699 H         1 <0>         0.0982
     46 H12         1.5932    0.2674    2.7653 H         1 <0>         0.0914
     47 H13         2.7057    1.1983    0.7941 H         1 <0>         0.1346
     48 H14         1.2450    2.1216    0.3676 H         1 <0>         0.1371
     49 H15         1.4669    3.2979    2.4300 H         1 <0>         0.4304
     50 H16         3.9662    3.2370    0.8908 H         1 <0>         0.1359
     51 H17         2.5055    4.1604    0.4643 H         1 <0>         0.1368
     52 H18         2.6808    5.4209    2.5924 H         1 <0>         0.1001
     53 H19         4.1416    4.4976    3.0190 H         1 <0>         0.0994
     54 H20         5.2790    5.3604    0.9916 H         1 <0>         0.0996
     55 H21         3.8183    6.2838    0.5650 H         1 <0>         0.1004
     56 H22         3.9937    7.5443    2.6931 H         1 <0>         0.1369
     57 H23         5.4544    6.6209    3.1197 H         1 <0>         0.1359
     58 H24         6.4930    7.4834    1.1540 H         1 <0>         0.4286
     59 H25         5.2541    9.5830    2.7899 H         1 <0>         0.1376
     60 H26         6.7149    8.6597    3.2164 H         1 <0>         0.1350
     61 H27         6.4217   10.3783    0.7127 H         1 <0>         0.1000
     62 H28         8.8364    9.0307    2.0055 H         1 <0>         0.0849
     63 H29         8.0112    8.4724    0.5298 H         1 <0>         0.0670
     64 H30        10.0607    9.8599    0.0535 H         1 <0>         0.1034
     65 H31         8.5685   10.5623   -0.6227 H         1 <0>         0.0721
     66 H32         8.4996   13.0558    2.2812 H         1 <0>         0.1004
     67 H33         7.5513   12.6448    0.8289 H         1 <0>         0.0779
     68 H34         6.4193   11.7314    2.8014 H         1 <0>         0.0913
     69 H35         7.9152   10.9167    3.3201 H         1 <0>         0.0822
     70 H36        10.2617   14.0993    1.6009 H         1 <0>         0.1066
     71 H37        10.3919   13.1277    3.0866 H         1 <0>         0.1047
     72 H38        12.5119   12.6006    4.0080 H         1 <0>         0.1184
     73 H39        14.9162   13.0855    4.1562 H         1 <0>         0.1263
     74 H40        16.0485   14.3368    2.3994 H         1 <0>         0.1308
     75 H41        11.0969   14.5373   -0.0799 H         1 <0>         0.1165
     76 H42        12.2313   15.7791   -1.8413 H         1 <0>         0.1233
     77 H43        14.6361   16.2638   -1.6932 H         1 <0>         0.1268
     78 H44        15.9424   15.5277    0.2262 H         1 <0>         0.1309
     79 H45         5.1408    8.3381    0.7591 H         1 <0>         0.4305
     80 H46         2.8191    2.4432    2.8249 H         1 <0>         0.4297
@<TRIPOS>BOND
     1    1    2 1
     2    1   35 1
     3    1   36 1
     4    1   37 1
     5    2    6 1
     6    2    3 1
     7    3    4 1
     8    3   38 1
     9    3   39 1
    10    4    5 1
    11    4   40 1
    12    4   41 1
    13    5    6 1
    14    5   42 1
    15    5   43 1
    16    6    7 1
    17    6   44 1
    18    7    8 1
    19    7   45 1
    20    7   46 1
    21    8    9 1
    22    8   47 1
    23    8   48 1
    24    9   10 1
    25    9   49 1
    26    9   80 1
    27   10   11 1
    28   10   50 1
    29   10   51 1
    30   11   12 1
    31   11   52 1
    32   11   53 1
    33   12   13 1
    34   12   54 1
    35   12   55 1
    36   13   14 1
    37   13   56 1
    38   13   57 1
    39   14   15 1
    40   14   58 1
    41   14   79 1
    42   15   16 1
    43   15   59 1
    44   15   60 1
    45   16   21 1
    46   16   17 1
    47   16   61 1
    48   17   18 1
    49   17   62 1
    50   17   63 1
    51   18   19 1
    52   18   64 1
    53   18   65 1
    54   19   20 1
    55   19   22 am
    56   20   21 1
    57   20   66 1
    58   20   67 1
    59   21   68 1
    60   21   69 1
    61   22   23 2
    62   22   24 1
    63   24   25 1
    64   24   70 1
    65   24   71 1
    66   25   30 ar
    67   25   26 ar
    68   26   27 ar
    69   26   72 1
    70   27   28 ar
    71   27   73 1
    72   28   29 ar
    73   28   74 1
    74   29   34 ar
    75   29   30 ar
    76   30   31 ar
    77   31   32 ar
    78   31   75 1
    79   32   33 ar
    80   32   76 1
    81   33   34 ar
    82   33   77 1
    83   34   78 1
@<TRIPOS>MOLECULE
CHEMBL22248
   81    84     0     0     0
SMALL
USER_CHARGES

@<TRIPOS>ATOM
      1 C1         -0.0178    1.4648    0.0101 C.3       1 <0>        -0.0563
      2 N1          0.0021   -0.0041    0.0020 N.4       1 <0>        -0.3955
      3 C2         -1.3791   -0.5192    0.0335 C.3       1 <0>        -0.0151
      4 C3         -1.5126   -1.3925    1.2988 C.3       1 <0>        -0.1435
      5 C4         -0.0439   -1.7839    1.6098 C.3       1 <0>        -0.1385
      6 C5          0.7163   -0.4986    1.1983 C.3       1 <0>         0.0281
      7 C6          2.1701   -0.8272    0.8528 C.3       1 <0>        -0.1717
      8 C7          2.9034    0.4566    0.4587 C.3       1 <0>        -0.0290
      9 N2          4.2992    0.1411    0.1270 N.4       1 <0>        -0.5091
     10 C8          5.0032    1.3736   -0.2514 C.3       1 <0>        -0.0114
     11 C9          6.4570    1.0450   -0.5969 C.3       1 <0>        -0.1503
     12 C10         7.1903    2.3288   -0.9909 C.3       1 <0>        -0.1500
     13 C11         8.6441    2.0002   -1.3365 C.3       1 <0>        -0.0100
     14 N3          9.3481    3.2327   -1.7148 N.4       1 <0>        -0.5116
     15 C12        10.7439    2.9172   -2.0466 C.3       1 <0>        -0.0061
     16 C13        11.4772    4.2010   -2.4406 C.3       1 <0>        -0.1149
     17 C14        11.5483    5.1386   -1.2331 C.3       1 <0>        -0.1431
     18 C15        12.2524    6.4367   -1.6405 C.3       1 <0>         0.1106
     19 N4         13.5592    6.1031   -2.2233 N.am      1 <0>        -0.6254
     20 C16        13.6133    5.1403   -3.3318 C.3       1 <0>         0.1034
     21 C17        12.8940    3.8567   -2.9055 C.3       1 <0>        -0.1291
     22 C18        14.6868    6.6700   -1.7504 C.2       1 <0>         0.5192
     23 O1         14.6288    7.4637   -0.8352 O.2       1 <0>        -0.5074
     24 C19        16.0197    6.3175   -2.3588 C.3       1 <0>        -0.0984
     25 C20        17.1111    7.0818   -1.6548 C.ar      1 <0>        -0.0744
     26 C21        17.5540    8.2651   -2.1615 C.ar      1 <0>        -0.0928
     27 C22        18.5621    8.9859   -1.5246 C.ar      1 <0>        -0.1163
     28 C23        19.1337    8.5274   -0.3774 C.ar      1 <0>        -0.0941
     29 C24        18.7028    7.3098    0.1756 C.ar      1 <0>        -0.0527
     30 C25        17.6729    6.5797   -0.4689 C.ar      1 <0>        -0.0317
     31 C26        17.2379    5.3646    0.0876 C.ar      1 <0>        -0.1166
     32 C27        17.8054    4.9093    1.2376 C.ar      1 <0>        -0.1092
     33 C28        18.8136    5.6305    1.8750 C.ar      1 <0>        -0.1218
     34 C29        19.2695    6.8041    1.3582 C.ar      1 <0>        -0.0946
     35 H1          1.0047    1.8421    0.0024 H         1 <0>         0.1099
     36 H2         -0.5450    1.8259   -0.8730 H         1 <0>         0.1352
     37 H3         -0.5280    1.8163    0.9069 H         1 <0>         0.1340
     38 H4         -2.0836    0.3112    0.0801 H         1 <0>         0.1410
     39 H5         -1.5706   -1.1215   -0.8546 H         1 <0>         0.1395
     40 H6         -1.9405   -0.8179    2.1203 H         1 <0>         0.1062
     41 H7         -2.1125   -2.2791    1.0937 H         1 <0>         0.1233
     42 H8          0.0881   -1.9927    2.6715 H         1 <0>         0.1258
     43 H9          0.2701   -2.6341    1.0044 H         1 <0>         0.1049
     44 H10         0.6733    0.2404    1.9984 H         1 <0>         0.1547
     45 H11         2.6579   -1.2727    1.7198 H         1 <0>         0.1398
     46 H12         2.1957   -1.5303    0.0203 H         1 <0>         0.1155
     47 H13         2.4156    0.9021   -0.4083 H         1 <0>         0.1287
     48 H14         2.8778    1.1597    1.2912 H         1 <0>         0.1497
     49 H15         4.7507   -0.2713    0.9295 H         1 <0>         0.4390
     50 H16         4.5155    1.8192   -1.1184 H         1 <0>         0.1378
     51 H17         4.9777    2.0768    0.5811 H         1 <0>         0.1407
     52 H18         6.9448    0.5995    0.2701 H         1 <0>         0.1034
     53 H19         6.4826    0.3419   -1.4294 H         1 <0>         0.1023
     54 H20         6.7025    2.7743   -1.8579 H         1 <0>         0.1002
     55 H21         7.1647    3.0319   -0.1585 H         1 <0>         0.1007
     56 H22         9.1318    1.5546   -0.4695 H         1 <0>         0.1369
     57 H23         8.6696    1.2970   -2.1690 H         1 <0>         0.1373
     58 H24         8.8966    3.6451   -2.5174 H         1 <0>         0.4304
     59 H25        11.2317    2.4717   -1.1796 H         1 <0>         0.1359
     60 H26        10.7695    2.2141   -2.8791 H         1 <0>         0.1381
     61 H27        10.9386    4.6927   -3.2507 H         1 <0>         0.1000
     62 H28        10.5394    5.3647   -0.8882 H         1 <0>         0.0652
     63 H29        12.1082    4.6573   -0.4313 H         1 <0>         0.0852
     64 H30        11.6475    6.9646   -2.3778 H         1 <0>         0.0717
     65 H31        12.3940    7.0667   -0.7624 H         1 <0>         0.1036
     66 H32        13.1194    5.5624   -4.2070 H         1 <0>         0.0782
     67 H33        14.6529    4.9148   -3.5695 H         1 <0>         0.1015
     68 H34        13.4412    3.3874   -2.0878 H         1 <0>         0.0825
     69 H35        12.8429    3.1704   -3.7507 H         1 <0>         0.0915
     70 H36        16.1972    5.2475   -2.2501 H         1 <0>         0.1044
     71 H37        16.0169    6.5796   -3.4168 H         1 <0>         0.1073
     72 H38        17.1176    8.6509   -3.0710 H         1 <0>         0.1216
     73 H39        18.8952    9.9221   -1.9476 H         1 <0>         0.1288
     74 H40        19.9147    9.0965    0.1050 H         1 <0>         0.1322
     75 H41        16.4571    4.7953   -0.3948 H         1 <0>         0.1131
     76 H42        17.4692    3.9753    1.6631 H         1 <0>         0.1196
     77 H43        19.2469    5.2469    2.7868 H         1 <0>         0.1259
     78 H44        20.0519    7.3517    1.8626 H         1 <0>         0.1317
     79 H45         9.3244    3.8836   -0.9442 H         1 <0>         0.4292
     80 H46         0.4664   -0.3335   -0.8310 H         1 <0>         0.4204
     81 H47         4.3229   -0.5098   -0.6437 H         1 <0>         0.4348
@<TRIPOS>BOND
     1    1    2 1
     2    1   35 1
     3    1   36 1
     4    1   37 1
     5    2    6 1
     6    2    3 1
     7    2   80 1
     8    3    4 1
     9    3   38 1
    10    3   39 1
    11    4    5 1
    12    4   40 1
    13    4   41 1
    14    5    6 1
    15    5   42 1
    16    5   43 1
    17    6    7 1
    18    6   44 1
    19    7    8 1
    20    7   45 1
    21    7   46 1
    22    8    9 1
    23    8   47 1
    24    8   48 1
    25    9   10 1
    26    9   49 1
    27    9   81 1
    28   10   11 1
    29   10   50 1
    30   10   51 1
    31   11   12 1
    32   11   52 1
    33   11   53 1
    34   12   13 1
    35   12   54 1
    36   12   55 1
    37   13   14 1
    38   13   56 1
    39   13   57 1
    40   14   15 1
    41   14   58 1
    42   14   79 1
    43   15   16 1
    44   15   59 1
    45   15   60 1
    46   16   21 1
    47   16   17 1
    48   16   61 1
    49   17   18 1
    50   17   62 1
    51   17   63 1
    52   18   19 1
    53   18   64 1
    54   18   65 1
    55   19   20 1
    56   19   22 am
    57   20   21 1
    58   20   66 1
    59   20   67 1
    60   21   68 1
    61   21   69 1
    62   22   23 2
    63   22   24 1
    64   24   25 1
    65   24   70 1
    66   24   71 1
    67   25   30 ar
    68   25   26 ar
    69   26   27 ar
    70   26   72 1
    71   27   28 ar
    72   27   73 1
    73   28   29 ar
    74   28   74 1
    75   29   34 ar
    76   29   30 ar
    77   30   31 ar
    78   31   32 ar
    79   31   75 1
    80   32   33 ar
    81   32   76 1
    82   33   34 ar
    83   33   77 1
    84   34   78 1
@<TRIPOS>MOLECULE
CHEMBL22248
   80    83     0     0     0
SMALL
USER_CHARGES

@<TRIPOS>ATOM
      1 C1          0.1528    1.7045    0.8420 C.3       1 <0>         0.0073
      2 N1          0.0281    0.2773    0.5171 N.3       1 <0>        -0.5350
      3 C2         -1.3591   -0.1872    0.7010 C.3       1 <0>         0.0393
      4 C3         -1.3188   -1.3634    1.6992 C.3       1 <0>        -0.1458
      5 C4          0.1447   -1.8662    1.5880 C.3       1 <0>        -0.1250
      6 C5          0.9155   -0.5401    1.3715 C.3       1 <0>         0.0682
      7 C6          2.2435   -0.8060    0.6597 C.3       1 <0>        -0.1314
      8 C7          2.9689    0.5198    0.4215 C.3       1 <0>        -0.0136
      9 N2          4.3018    0.2554   -0.1365 N.4       1 <0>        -0.5102
     10 C8          4.9984    1.5284   -0.3651 C.3       1 <0>        -0.0095
     11 C9          6.3866    1.2529   -0.9463 C.3       1 <0>        -0.1488
     12 C10         7.1121    2.5788   -1.1845 C.3       1 <0>        -0.1498
     13 C11         8.5003    2.3033   -1.7656 C.3       1 <0>        -0.0095
     14 N3          9.1969    3.5763   -1.9943 N.4       1 <0>        -0.5116
     15 C12        10.5298    3.3118   -2.5523 C.3       1 <0>        -0.0057
     16 C13        11.2552    4.6377   -2.7904 C.3       1 <0>        -0.1151
     17 C14        11.5063    5.3297   -1.4487 C.3       1 <0>        -0.1437
     18 C15        12.2016    6.6726   -1.6935 C.3       1 <0>         0.1108
     19 N4         13.4151    6.4388   -2.4882 N.am      1 <0>        -0.6244
     20 C16        13.2994    5.7018   -3.7540 C.3       1 <0>         0.1035
     21 C17        12.5918    4.3698   -3.4861 C.3       1 <0>        -0.1289
     22 C18        14.6114    6.8922   -2.0645 C.2       1 <0>         0.5190
     23 O1         14.6937    7.4997   -1.0180 O.2       1 <0>        -0.5090
     24 C19        15.8470    6.6444   -2.8909 C.3       1 <0>        -0.0991
     25 C20        17.0426    7.2486   -2.2007 C.ar      1 <0>        -0.0719
     26 C21        17.4627    8.5007   -2.5306 C.ar      1 <0>        -0.0941
     27 C22        18.5659    9.0758   -1.9034 C.ar      1 <0>        -0.1161
     28 C23        19.2561    8.4021   -0.9427 C.ar      1 <0>        -0.0955
     29 C24        18.8522    7.1075   -0.5755 C.ar      1 <0>        -0.0526
     30 C25        17.7260    6.5249   -1.2092 C.ar      1 <0>        -0.0319
     31 C26        17.3186    5.2320   -0.8376 C.ar      1 <0>        -0.1152
     32 C27        18.0050    4.5610    0.1270 C.ar      1 <0>        -0.1096
     33 C28        19.1085    5.1364    0.7547 C.ar      1 <0>        -0.1211
     34 C29        19.5400    6.3808    0.4116 C.ar      1 <0>        -0.0961
     35 H1          1.2025    1.9957    0.8030 H         1 <0>         0.0573
     36 H2         -0.4143    2.2924    0.1203 H         1 <0>         0.0790
     37 H3         -0.2372    1.8845    1.8438 H         1 <0>         0.0389
     38 H4         -1.9702    0.6204    1.1039 H         1 <0>         0.0647
     39 H5         -1.7669   -0.5237   -0.2522 H         1 <0>         0.0871
     40 H6         -1.5317   -1.0177    2.7108 H         1 <0>         0.0729
     41 H7         -2.0184   -2.1448    1.4025 H         1 <0>         0.0861
     42 H8          0.4605   -2.3555    2.5094 H         1 <0>         0.0818
     43 H9          0.2650   -2.5317    0.7332 H         1 <0>         0.0818
     44 H10         1.0885   -0.0416    2.3253 H         1 <0>         0.0675
     45 H11         2.8642   -1.4538    1.2787 H         1 <0>         0.0905
     46 H12         2.0519   -1.2923   -0.2969 H         1 <0>         0.0981
     47 H13         2.3956    1.1269   -0.2791 H         1 <0>         0.1417
     48 H14         3.0700    1.0535    1.3665 H         1 <0>         0.1286
     49 H15         4.8325   -0.3066    0.5121 H         1 <0>         0.4287
     50 H16         4.4251    2.1355   -1.0658 H         1 <0>         0.1357
     51 H17         5.0994    2.0621    0.5799 H         1 <0>         0.1345
     52 H18         6.9599    0.6458   -0.2457 H         1 <0>         0.0995
     53 H19         6.2855    0.7192   -1.8913 H         1 <0>         0.1002
     54 H20         6.5388    3.1859   -1.8851 H         1 <0>         0.1002
     55 H21         7.2132    3.1125   -0.2394 H         1 <0>         0.0992
     56 H22         9.0736    1.6962   -1.0650 H         1 <0>         0.1359
     57 H23         8.3992    1.7696   -2.7106 H         1 <0>         0.1369
     58 H24         8.6662    4.1383   -2.6428 H         1 <0>         0.4304
     59 H25        11.1030    2.7047   -1.8517 H         1 <0>         0.1350
     60 H26        10.4287    2.7781   -3.4973 H         1 <0>         0.1376
     61 H27        10.6402    5.2801   -3.4206 H         1 <0>         0.1000
     62 H28        10.5555    5.4991   -0.9432 H         1 <0>         0.0671
     63 H29        12.1418    4.6988   -0.8273 H         1 <0>         0.0849
     64 H30        11.5309    7.3375   -2.2376 H         1 <0>         0.0722
     65 H31        12.4715    7.1237   -0.7386 H         1 <0>         0.1033
     66 H32        12.7183    6.2876   -4.4662 H         1 <0>         0.0781
     67 H33        14.2937    5.5124   -4.1587 H         1 <0>         0.1002
     68 H34        13.2171    3.7480   -2.8455 H         1 <0>         0.0820
     69 H35        12.4137    3.8560   -4.4308 H         1 <0>         0.0914
     70 H36        15.9979    5.5711   -3.0060 H         1 <0>         0.1045
     71 H37        15.7249    7.1015   -3.8729 H         1 <0>         0.1071
     72 H38        16.9331    9.0565   -3.2902 H         1 <0>         0.1215
     73 H39        18.8785   10.0709   -2.1838 H         1 <0>         0.1281
     74 H40        20.1098    8.8602   -0.4655 H         1 <0>         0.1314
     75 H41        16.4650    4.7737   -1.3148 H         1 <0>         0.1141
     76 H42        17.6899    3.5677    0.4107 H         1 <0>         0.1201
     77 H43        19.6354    4.5824    1.5175 H         1 <0>         0.1256
     78 H44        20.3970    6.8136    0.9060 H         1 <0>         0.1309
     79 H45         9.2904    4.0704   -1.1195 H         1 <0>         0.4286
     80 H46         4.2083   -0.2387   -1.0113 H         1 <0>         0.4311
@<TRIPOS>BOND
     1    1    2 1
     2    1   35 1
     3    1   36 1
     4    1   37 1
     5    2    6 1
     6    2    3 1
     7    3    4 1
     8    3   38 1
     9    3   39 1
    10    4    5 1
    11    4   40 1
    12    4   41 1
    13    5    6 1
    14    5   42 1
    15    5   43 1
    16    6    7 1
    17    6   44 1
    18    7    8 1
    19    7   45 1
    20    7   46 1
    21    8    9 1
    22    8   47 1
    23    8   48 1
    24    9   10 1
    25    9   49 1
    26    9   80 1
    27   10   11 1
    28   10   50 1
    29   10   51 1
    30   11   12 1
    31   11   52 1
    32   11   53 1
    33   12   13 1
    34   12   54 1
    35   12   55 1
    36   13   14 1
    37   13   56 1
    38   13   57 1
    39   14   15 1
    40   14   58 1
    41   14   79 1
    42   15   16 1
    43   15   59 1
    44   15   60 1
    45   16   21 1
    46   16   17 1
    47   16   61 1
    48   17   18 1
    49   17   62 1
    50   17   63 1
    51   18   19 1
    52   18   64 1
    53   18   65 1
    54   19   20 1
    55   19   22 am
    56   20   21 1
    57   20   66 1
    58   20   67 1
    59   21   68 1
    60   21   69 1
    61   22   23 2
    62   22   24 1
    63   24   25 1
    64   24   70 1
    65   24   71 1
    66   25   30 ar
    67   25   26 ar
    68   26   27 ar
    69   26   72 1
    70   27   28 ar
    71   27   73 1
    72   28   29 ar
    73   28   74 1
    74   29   34 ar
    75   29   30 ar
    76   30   31 ar
    77   31   32 ar
    78   31   75 1
    79   32   33 ar
    80   32   76 1
    81   33   34 ar
    82   33   77 1
    83   34   78 1
@<TRIPOS>MOLECULE
CHEMBL553232
   34    36     0     0     0
SMALL
USER_CHARGES

@<TRIPOS>ATOM
      1 C1         -0.0168    1.3860    0.0097 C.ar      1 <0>        -0.0948
      2 C2          1.1685    2.0929    0.0021 C.ar      1 <0>        -0.0709
      3 C3          2.3800    1.4230   -0.0130 C.ar      1 <0>        -0.0267
      4 C4          2.4113    0.0433   -0.0208 C.ar      1 <0>        -0.0494
      5 C5          1.2238   -0.6797   -0.0138 C.ar      1 <0>         0.1535
      6 C6          0.0021   -0.0041    0.0020 C.ar      1 <0>         0.1832
      7 N1         -1.1976   -0.7101    0.0097 N.am      1 <0>        -0.6352
      8 C7         -1.1886   -2.0585    0.0024 C.2       1 <0>         0.5108
      9 C8          0.1165   -2.7803   -0.0140 C.2       1 <0>         0.5106
     10 N2          1.2635   -2.0712   -0.0221 N.am      1 <0>        -0.6350
     11 O1          0.1460   -3.9946   -0.0208 O.2       1 <0>        -0.4256
     12 O2         -2.2327   -2.6790    0.0094 O.2       1 <0>        -0.4238
     13 N3          3.6463    2.1893   -0.0215 N.pl3     1 <0>         0.0304
     14 O3          4.7055    1.6066   -0.0348 O.2       1 <0>        -0.1045
     15 O4          3.6215    3.3981   -0.0152 O.3       1 <0>        -0.1855
     16 C9          1.1440    3.5997    0.0100 C.3       1 <0>         0.0904
     17 N4          1.3631    4.0988   -1.3499 N.pl3     1 <0>        -0.3946
     18 C10         0.4912    4.7458   -2.0139 C.2       1 <0>         0.2969
     19 C11         1.0127    5.1213   -3.3832 C.3       1 <0>        -0.1521
     20 C12         2.2501    4.2096   -3.5694 C.3       1 <0>        -0.1440
     21 C13         2.6142    3.9130   -2.0938 C.3       1 <0>         0.0409
     22 H1         -0.9594    1.9129    0.0260 H         1 <0>         0.1710
     23 H2          3.3587   -0.4751   -0.0326 H         1 <0>         0.1811
     24 H3          0.1759    3.9455    0.3723 H         1 <0>         0.1442
     25 H4          1.9314    3.9725    0.6651 H         1 <0>         0.1646
     26 H5         -0.4938    4.9941   -1.6473 H         1 <0>         0.2244
     27 H6          3.3722    4.6119   -1.7402 H         1 <0>         0.1503
     28 H7          0.2648    4.9126   -4.1481 H         1 <0>         0.1430
     29 H8          1.9892    3.2970   -4.1054 H         1 <0>         0.1029
     30 H9          2.9669    2.8868   -1.9910 H         1 <0>         0.0998
     31 H10         3.0583    4.7411   -4.0719 H         1 <0>         0.1269
     32 H11         1.3038    6.1714   -3.4073 H         1 <0>         0.1493
     33 H12         2.1173   -2.5313   -0.0330 H         1 <0>         0.4350
     34 H13        -2.0412   -0.2315    0.0206 H         1 <0>         0.4328
@<TRIPOS>BOND
     1    1    6 ar
     2    1    2 ar
     3    1   22 1
     4    2    3 ar
     5    2   16 1
     6    3    4 ar
     7    3   13 1
     8    4    5 ar
     9    4   23 1
    10    5   10 1
    11    5    6 ar
    12    6    7 1
    13    7    8 am
    14    7   34 1
    15    8    9 1
    16    8   12 2
    17    9   10 am
    18    9   11 2
    19   10   33 1
    20   13   14 2
    21   13   15 1
    22   16   24 1
    23   16   25 1
    24   16   17 1
    25   17   18 2
    26   17   21 1
    27   18   26 1
    28   18   19 1
    29   19   20 1
    30   19   28 1
    31   19   32 1
    32   20   21 1
    33   20   29 1
    34   20   31 1
    35   21   30 1
    36   21   27 1
@<TRIPOS>MOLECULE
CHEMBL293206
   32    34     0     0     0
SMALL
USER_CHARGES

@<TRIPOS>ATOM
      1 C1         -0.0178    1.4648    0.0101 C.3       1 <0>         0.0204
      2 N1          0.0021   -0.0041    0.0020 N.3       1 <0>        -0.5346
      3 C2         -1.3633   -0.5497   -0.0586 C.3       1 <0>         0.0446
      4 C3         -1.2783   -2.0304   -0.4297 C.3       1 <0>        -0.0921
      5 C4         -0.2918   -2.7310    0.4697 C.ar      1 <0>         0.0165
      6 C5         -0.3309   -4.1183    0.5388 C.ar      1 <0>        -0.0427
      7 C6          0.5515   -4.8065    1.3424 C.ar      1 <0>        -0.0501
      8 C7          1.4925   -4.1100    2.0927 C.ar      1 <0>         0.1167
      9 C8          1.5323   -2.7181    2.0262 C.ar      1 <0>         0.1797
     10 C9          0.6325   -2.0307    1.2106 C.ar      1 <0>        -0.0844
     11 C10         0.7048   -0.5265    1.1780 C.3       1 <0>         0.0898
     12 N2          2.4650   -1.9990    2.7689 N.am      1 <0>        -0.6342
     13 C11         3.3415   -2.6480    3.5620 C.2       1 <0>         0.5118
     14 C12         3.2990   -4.1372    3.6328 C.2       1 <0>         0.5118
     15 N3          2.3845   -4.8075    2.9025 N.am      1 <0>        -0.6305
     16 O1          4.0802   -4.7403    4.3409 O.2       1 <0>        -0.4510
     17 O2          4.1577   -2.0260    4.2119 O.2       1 <0>        -0.4464
     18 N4         -1.3307   -4.8639   -0.2584 N.pl3     1 <0>         0.0394
     19 O3         -1.3699   -6.0710   -0.2027 O.2       1 <0>        -0.1570
     20 O4         -2.1081   -4.2658   -0.9653 O.3       1 <0>        -0.1481
     21 H1          1.0047    1.8421    0.0024 H         1 <0>         0.0740
     22 H2         -0.5450    1.8259   -0.8730 H         1 <0>         0.0790
     23 H3         -0.5280    1.8163    0.9069 H         1 <0>         0.0325
     24 H4         -1.8439   -0.4429    0.9139 H         1 <0>         0.0461
     25 H5         -1.9380   -0.0151   -0.8149 H         1 <0>         0.0952
     26 H6         -2.2606   -2.4889   -0.3159 H         1 <0>         0.1187
     27 H7         -0.9541   -2.1256   -1.4660 H         1 <0>         0.1077
     28 H8          0.5123   -5.8847    1.3898 H         1 <0>         0.1712
     29 H9          1.7494   -0.2175    1.1396 H         1 <0>         0.0952
     30 H10         0.2443   -0.1244    2.0804 H         1 <0>         0.0642
     31 H11         2.3479   -5.7760    2.9419 H         1 <0>         0.4298
     32 H12         2.4844   -1.0306    2.7156 H         1 <0>         0.4269
@<TRIPOS>BOND
     1    1    2 1
     2    1   21 1
     3    1   22 1
     4    1   23 1
     5    2   11 1
     6    2    3 1
     7    3    4 1
     8    3   24 1
     9    3   25 1
    10    4    5 1
    11    4   26 1
    12    4   27 1
    13    5   10 ar
    14    5    6 ar
    15    6    7 ar
    16    6   18 1
    17    7    8 ar
    18    7   28 1
    19    8   15 1
    20    8    9 ar
    21    9   10 ar
    22    9   12 1
    23   10   11 1
    24   11   29 1
    25   11   30 1
    26   12   13 am
    27   12   32 1
    28   13   14 1
    29   13   17 2
    30   14   15 am
    31   14   16 2
    32   15   31 1
    33   18   19 2
    34   18   20 1
@<TRIPOS>MOLECULE
CHEMBL276624
   24    26     0     0     0
SMALL
USER_CHARGES

@<TRIPOS>ATOM
      1 C1         -0.0166    1.3740    0.0096 C.ar      1 <0>         0.0229
      2 C2          1.1838    2.0788    0.0019 C.ar      1 <0>        -0.1276
      3 C3          2.4131    1.3819   -0.0136 C.ar      1 <0>         0.2623
      4 C4          2.4076   -0.0139   -0.0210 C.ar      1 <0>        -0.1462
      5 C5          1.2083   -0.6932   -0.0132 C.ar      1 <0>         0.0503
      6 C6          0.0021   -0.0041    0.0020 C.ar      1 <0>        -0.1308
      7 N1         -1.2731   -0.7558    0.0106 N.pl3     1 <0>         0.0600
      8 O1         -2.3255   -0.1609    0.0243 O.2       1 <0>        -0.1994
      9 O2         -1.2621   -1.9647    0.0041 O.3       1 <0>        -0.1761
     10 Cl1         1.2050   -2.4291   -0.0225 Cl        1 <0>        -0.0395
     11 N2          3.5719    2.0872   -0.0213 N.2       1 <0>        -0.6023
     12 C7          3.5961    3.3888   -0.0150 C.2       1 <0>         0.6359
     13 N3          2.4580    4.1610    0.0005 N.pl3     1 <0>        -0.2845
     14 C8          1.2283    3.5455    0.0089 C.2       1 <0>         0.0188
     15 C9          0.2774    4.5360    0.0231 C.2       1 <0>        -0.1732
     16 C10         1.0047    5.7448    0.0222 C.2       1 <0>         0.0027
     17 N4          2.2887    5.4370    0.0090 N.2       1 <0>        -0.2329
     18 C11         0.4344    7.1054    0.0341 C.2       1 <0>         0.5669
     19 O3         -0.7787    7.2598    0.0463 O.co2     1 <0>        -0.6846
     20 O4          1.1747    8.0788    0.0319 O.co2     1 <0>        -0.6729
     21 O5          4.7958    4.0105   -0.0235 O.3       1 <0>        -0.6147
     22 H1         -0.9574    1.9042    0.0259 H         1 <0>         0.1541
     23 H2          3.3395   -0.5595   -0.0332 H         1 <0>         0.1527
     24 H3         -0.7958    4.4155    0.0327 H         1 <0>         0.1582
@<TRIPOS>BOND
     1    1    6 ar
     2    1    2 ar
     3    1   22 1
     4    2   14 1
     5    2    3 ar
     6    3    4 ar
     7    3   11 1
     8    4    5 ar
     9    4   23 1
    10    5    6 ar
    11    5   10 1
    12    6    7 1
    13    7    8 2
    14    7    9 1
    15   11   12 2
    16   12   13 1
    17   12   21 1
    18   13   17 1
    19   13   14 1
    20   14   15 2
    21   15   16 1
    22   15   24 1
    23   16   17 2
    24   16   18 1
    25   18   19 2
    26   18   20 1
@<TRIPOS>MOLECULE
CHEMBL277002
   78    81     0     0     0
SMALL
USER_CHARGES

@<TRIPOS>ATOM
      1 C1         -0.0164    1.3567    0.0095 C.ar      1 <0>        -0.1174
      2 C2          1.1685    2.0906    0.0021 C.ar      1 <0>        -0.1058
      3 C3          2.3785    1.4679   -0.0132 C.ar      1 <0>        -0.1171
      4 C4          2.4378    0.0637   -0.0214 C.ar      1 <0>        -0.0324
      5 C5          1.2328   -0.6827   -0.0134 C.ar      1 <0>        -0.0525
      6 C6          0.0021   -0.0041    0.0020 C.ar      1 <0>        -0.0981
      7 C7          1.2920   -2.0865   -0.0210 C.ar      1 <0>        -0.0926
      8 C8          2.5022   -2.7094   -0.0359 C.ar      1 <0>        -0.1204
      9 C9          3.6867   -1.9757   -0.0433 C.ar      1 <0>        -0.0970
     10 C10         3.6681   -0.6146   -0.0367 C.ar      1 <0>        -0.0718
     11 C11         4.9603    0.1606   -0.0459 C.3       1 <0>        -0.0986
     12 C12         5.3414    0.5186    1.3675 C.2       1 <0>         0.5191
     13 O1          4.6334    0.1777    2.2913 O.2       1 <0>        -0.5074
     14 N1          6.4691    1.2175    1.6049 N.am      1 <0>        -0.6256
     15 C13         7.3338    1.6427    0.4958 C.3       1 <0>         0.1033
     16 C14         8.7613    1.1593    0.7702 C.3       1 <0>        -0.1286
     17 C15         9.2100    1.6607    2.1448 C.3       1 <0>        -0.1152
     18 C16         8.2897    1.0865    3.2244 C.3       1 <0>        -0.1429
     19 C17         6.8539    1.5739    2.9774 C.3       1 <0>         0.1107
     20 C18        10.6479    1.2089    2.4077 C.3       1 <0>        -0.0058
     21 N2         11.1201    1.7892    3.6719 N.4       1 <0>        -0.5118
     22 C19        12.5007    1.3554    3.9244 C.3       1 <0>        -0.0096
     23 C20        12.9925    1.9599    5.2411 C.3       1 <0>        -0.1505
     24 C21        14.4304    1.5081    5.5040 C.3       1 <0>        -0.1497
     25 C22        14.9222    2.1125    6.8207 C.3       1 <0>        -0.0105
     26 N3         16.3028    1.6787    7.0732 N.4       1 <0>        -0.5107
     27 C23        16.7750    2.2591    8.3374 C.3       1 <0>        -0.0024
     28 C24        18.2129    1.8073    8.6003 C.3       1 <0>        -0.1421
     29 C25        18.2407    0.2921    8.8208 C.3       1 <0>        -0.1514
     30 C26        19.6706   -0.1384    9.1602 C.3       1 <0>        -0.1472
     31 C27        20.1522    0.6354   10.3894 C.3       1 <0>        -0.0145
     32 N4         20.1273    2.0754   10.1062 N.4       1 <0>        -0.5047
     33 C28        18.7485    2.5090    9.8502 C.3       1 <0>        -0.0006
     34 H1         -0.9634    1.8756    0.0259 H         1 <0>         0.1274
     35 H2          1.1258    3.1698    0.0084 H         1 <0>         0.1234
     36 H3          3.2883    2.0497   -0.0195 H         1 <0>         0.1159
     37 H4         -0.9241   -0.5595    0.0082 H         1 <0>         0.1316
     38 H5          0.3820   -2.6682   -0.0147 H         1 <0>         0.1315
     39 H6          2.5450   -3.7886   -0.0417 H         1 <0>         0.1265
     40 H7          4.6338   -2.4947   -0.0548 H         1 <0>         0.1179
     41 H8          5.7467   -0.4491   -0.4909 H         1 <0>         0.1044
     42 H9          4.8331    1.0722   -0.6299 H         1 <0>         0.1068
     43 H10         6.9734    1.2073   -0.4362 H         1 <0>         0.1015
     44 H11         7.3242    2.7301    0.4212 H         1 <0>         0.0779
     45 H12         8.7858    0.0697    0.7546 H         1 <0>         0.0825
     46 H13         9.4312    1.5498    0.0041 H         1 <0>         0.0913
     47 H14         9.1617    2.7494    2.1678 H         1 <0>         0.1001
     48 H15         8.3186   -0.0024    3.1857 H         1 <0>         0.0851
     49 H16         8.6239    1.4251    4.2051 H         1 <0>         0.0651
     50 H17         6.8060    2.6558    3.1010 H         1 <0>         0.0722
     51 H18         6.1767    1.0931    3.6833 H         1 <0>         0.1037
     52 H19        10.6810    0.1213    2.4725 H         1 <0>         0.1355
     53 H20        11.2889    1.5440    1.5923 H         1 <0>         0.1379
     54 H21        11.0895    2.7960    3.6120 H         1 <0>         0.4309
     55 H22        12.5338    0.2679    3.9891 H         1 <0>         0.1362
     56 H23        13.1417    1.6906    3.1090 H         1 <0>         0.1371
     57 H24        12.9594    3.0474    5.1764 H         1 <0>         0.1014
     58 H25        12.3515    1.6248    6.0565 H         1 <0>         0.1008
     59 H26        14.4635    0.4205    5.5687 H         1 <0>         0.1011
     60 H27        15.0714    1.8432    4.6886 H         1 <0>         0.1018
     61 H28        14.8892    3.2001    6.7560 H         1 <0>         0.1411
     62 H29        14.2812    1.7774    7.6362 H         1 <0>         0.1405
     63 H30        16.3334    0.6720    7.1331 H         1 <0>         0.4314
     64 H31        16.7420    3.3466    8.2727 H         1 <0>         0.1476
     65 H32        16.1340    1.9240    9.1528 H         1 <0>         0.1465
     66 H33        18.8371    2.0626    7.7439 H         1 <0>         0.1200
     67 H34        17.5763    0.0314    9.6446 H         1 <0>         0.1005
     68 H35        17.9134   -0.2144    7.9128 H         1 <0>         0.0893
     69 H36        19.6881   -1.2072    9.3731 H         1 <0>         0.1262
     70 H37        20.3254    0.0760    8.3156 H         1 <0>         0.0960
     71 H38        19.4969    0.4201   11.2334 H         1 <0>         0.1377
     72 H39        21.1699    0.3312   10.6339 H         1 <0>         0.1468
     73 H40        20.4956    2.5795   10.8989 H         1 <0>         0.4468
     74 H41        18.7300    3.5879    9.6967 H         1 <0>         0.1451
     75 H42        18.1232    2.2538   10.7057 H         1 <0>         0.1431
     76 H43        20.6953    2.2675    9.2947 H         1 <0>         0.4325
     77 H44        10.5267    1.4790    4.4268 H         1 <0>         0.4292
     78 H45        16.8962    1.9890    6.3184 H         1 <0>         0.4338
@<TRIPOS>BOND
     1    1    6 ar
     2    1    2 ar
     3    1   34 1
     4    2    3 ar
     5    2   35 1
     6    3    4 ar
     7    3   36 1
     8    4   10 ar
     9    4    5 ar
    10    5    6 ar
    11    5    7 ar
    12    6   37 1
    13    7    8 ar
    14    7   38 1
    15    8    9 ar
    16    8   39 1
    17    9   10 ar
    18    9   40 1
    19   10   11 1
    20   11   12 1
    21   11   41 1
    22   11   42 1
    23   12   13 2
    24   12   14 am
    25   14   19 1
    26   14   15 1
    27   15   16 1
    28   15   43 1
    29   15   44 1
    30   16   17 1
    31   16   45 1
    32   16   46 1
    33   17   18 1
    34   17   20 1
    35   17   47 1
    36   18   19 1
    37   18   48 1
    38   18   49 1
    39   19   50 1
    40   19   51 1
    41   20   21 1
    42   20   52 1
    43   20   53 1
    44   21   22 1
    45   21   54 1
    46   21   77 1
    47   22   23 1
    48   22   55 1
    49   22   56 1
    50   23   24 1
    51   23   57 1
    52   23   58 1
    53   24   25 1
    54   24   59 1
    55   24   60 1
    56   25   26 1
    57   25   61 1
    58   25   62 1
    59   26   27 1
    60   26   63 1
    61   26   78 1
    62   27   28 1
    63   27   64 1
    64   27   65 1
    65   28   33 1
    66   28   29 1
    67   28   66 1
    68   29   30 1
    69   29   67 1
    70   29   68 1
    71   30   31 1
    72   30   69 1
    73   30   70 1
    74   31   32 1
    75   31   71 1
    76   31   72 1
    77   32   33 1
    78   32   73 1
    79   32   76 1
    80   33   74 1
    81   33   75 1
@<TRIPOS>MOLECULE
CHEMBL277002
   78    81     0     0     0
SMALL
USER_CHARGES

@<TRIPOS>ATOM
      1 C1         -0.0164    1.3567    0.0095 C.ar      1 <0>        -0.1174
      2 C2          1.1685    2.0906    0.0021 C.ar      1 <0>        -0.1058
      3 C3          2.3785    1.4679   -0.0132 C.ar      1 <0>        -0.1171
      4 C4          2.4378    0.0637   -0.0214 C.ar      1 <0>        -0.0324
      5 C5          1.2328   -0.6827   -0.0134 C.ar      1 <0>        -0.0525
      6 C6          0.0021   -0.0041    0.0020 C.ar      1 <0>        -0.0981
      7 C7          1.2920   -2.0865   -0.0210 C.ar      1 <0>        -0.0926
      8 C8          2.5022   -2.7094   -0.0359 C.ar      1 <0>        -0.1204
      9 C9          3.6867   -1.9757   -0.0433 C.ar      1 <0>        -0.0969
     10 C10         3.6681   -0.6146   -0.0367 C.ar      1 <0>        -0.0718
     11 C11         4.9603    0.1606   -0.0459 C.3       1 <0>        -0.0986
     12 C12         5.3414    0.5186    1.3675 C.2       1 <0>         0.5191
     13 O1          4.6334    0.1777    2.2913 O.2       1 <0>        -0.5074
     14 N1          6.4691    1.2175    1.6049 N.am      1 <0>        -0.6256
     15 C13         7.3338    1.6427    0.4958 C.3       1 <0>         0.1033
     16 C14         8.7613    1.1593    0.7702 C.3       1 <0>        -0.1286
     17 C15         9.2100    1.6607    2.1448 C.3       1 <0>        -0.1152
     18 C16         8.2897    1.0865    3.2244 C.3       1 <0>        -0.1429
     19 C17         6.8539    1.5739    2.9774 C.3       1 <0>         0.1107
     20 C18        10.6479    1.2089    2.4077 C.3       1 <0>        -0.0058
     21 N2         11.1201    1.7892    3.6719 N.4       1 <0>        -0.5118
     22 C19        12.5007    1.3554    3.9244 C.3       1 <0>        -0.0096
     23 C20        12.9925    1.9599    5.2411 C.3       1 <0>        -0.1505
     24 C21        14.4304    1.5081    5.5040 C.3       1 <0>        -0.1497
     25 C22        14.9222    2.1125    6.8207 C.3       1 <0>        -0.0105
     26 N3         16.3028    1.6787    7.0732 N.4       1 <0>        -0.5107
     27 C23        16.7750    2.2591    8.3374 C.3       1 <0>        -0.0024
     28 C24        18.2129    1.8073    8.6003 C.3       1 <0>        -0.1421
     29 C25        19.1359    2.3871    7.5247 C.3       1 <0>        -0.1513
     30 C26        20.5819    1.9943    7.8408 C.3       1 <0>        -0.1473
     31 C27        20.9439    2.4881    9.2432 C.3       1 <0>        -0.0144
     32 N4         20.0429    1.8779   10.2284 N.4       1 <0>        -0.5047
     33 C28        18.6627    2.3080    9.9746 C.3       1 <0>        -0.0007
     34 H1         -0.9634    1.8756    0.0259 H         1 <0>         0.1274
     35 H2          1.1258    3.1698    0.0084 H         1 <0>         0.1234
     36 H3          3.2883    2.0497   -0.0195 H         1 <0>         0.1159
     37 H4         -0.9241   -0.5595    0.0082 H         1 <0>         0.1316
     38 H5          0.3820   -2.6682   -0.0147 H         1 <0>         0.1314
     39 H6          2.5450   -3.7886   -0.0417 H         1 <0>         0.1265
     40 H7          4.6338   -2.4947   -0.0548 H         1 <0>         0.1179
     41 H8          5.7467   -0.4491   -0.4909 H         1 <0>         0.1045
     42 H9          4.8331    1.0722   -0.6299 H         1 <0>         0.1068
     43 H10         6.9734    1.2073   -0.4362 H         1 <0>         0.1015
     44 H11         7.3242    2.7301    0.4212 H         1 <0>         0.0779
     45 H12         8.7858    0.0697    0.7546 H         1 <0>         0.0825
     46 H13         9.4312    1.5498    0.0041 H         1 <0>         0.0912
     47 H14         9.1617    2.7494    2.1678 H         1 <0>         0.1001
     48 H15         8.3186   -0.0024    3.1857 H         1 <0>         0.0851
     49 H16         8.6239    1.4251    4.2051 H         1 <0>         0.0651
     50 H17         6.8060    2.6558    3.1010 H         1 <0>         0.0722
     51 H18         6.1767    1.0931    3.6833 H         1 <0>         0.1037
     52 H19        10.6810    0.1213    2.4725 H         1 <0>         0.1355
     53 H20        11.2889    1.5440    1.5923 H         1 <0>         0.1379
     54 H21        11.0895    2.7960    3.6120 H         1 <0>         0.4308
     55 H22        12.5338    0.2679    3.9891 H         1 <0>         0.1363
     56 H23        13.1417    1.6906    3.1090 H         1 <0>         0.1370
     57 H24        12.9594    3.0474    5.1764 H         1 <0>         0.1013
     58 H25        12.3515    1.6248    6.0565 H         1 <0>         0.1009
     59 H26        14.4635    0.4205    5.5687 H         1 <0>         0.1017
     60 H27        15.0714    1.8432    4.6886 H         1 <0>         0.1012
     61 H28        14.8892    3.2001    6.7560 H         1 <0>         0.1405
     62 H29        14.2812    1.7774    7.6362 H         1 <0>         0.1411
     63 H30        16.3334    0.6720    7.1331 H         1 <0>         0.4339
     64 H31        16.7420    3.3466    8.2727 H         1 <0>         0.1465
     65 H32        16.1340    1.9240    9.1528 H         1 <0>         0.1476
     66 H33        18.2628    0.7187    8.5754 H         1 <0>         0.1200
     67 H34        18.8548    1.9888    6.5498 H         1 <0>         0.0893
     68 H35        19.0471    3.4735    7.5152 H         1 <0>         0.1005
     69 H36        20.6817    0.9096    7.7999 H         1 <0>         0.0960
     70 H37        21.2508    2.4498    7.1107 H         1 <0>         0.1262
     71 H38        21.9728    2.2102    9.4715 H         1 <0>         0.1468
     72 H39        20.8440    3.5728    9.2830 H         1 <0>         0.1376
     73 H40        20.0995    0.8730   10.1574 H         1 <0>         0.4326
     74 H41        18.6115    3.3965    9.9988 H         1 <0>         0.1431
     75 H42        18.0075    1.8972   10.7427 H         1 <0>         0.1451
     76 H43        20.3179    2.1635   11.1563 H         1 <0>         0.4468
     77 H44        10.5267    1.4790    4.4268 H         1 <0>         0.4292
     78 H45        16.8962    1.9890    6.3184 H         1 <0>         0.4313
@<TRIPOS>BOND
     1    1    6 ar
     2    1    2 ar
     3    1   34 1
     4    2    3 ar
     5    2   35 1
     6    3    4 ar
     7    3   36 1
     8    4   10 ar
     9    4    5 ar
    10    5    6 ar
    11    5    7 ar
    12    6   37 1
    13    7    8 ar
    14    7   38 1
    15    8    9 ar
    16    8   39 1
    17    9   10 ar
    18    9   40 1
    19   10   11 1
    20   11   12 1
    21   11   41 1
    22   11   42 1
    23   12   13 2
    24   12   14 am
    25   14   19 1
    26   14   15 1
    27   15   16 1
    28   15   43 1
    29   15   44 1
    30   16   17 1
    31   16   45 1
    32   16   46 1
    33   17   18 1
    34   17   20 1
    35   17   47 1
    36   18   19 1
    37   18   48 1
    38   18   49 1
    39   19   50 1
    40   19   51 1
    41   20   21 1
    42   20   52 1
    43   20   53 1
    44   21   22 1
    45   21   54 1
    46   21   77 1
    47   22   23 1
    48   22   55 1
    49   22   56 1
    50   23   24 1
    51   23   57 1
    52   23   58 1
    53   24   25 1
    54   24   59 1
    55   24   60 1
    56   25   26 1
    57   25   61 1
    58   25   62 1
    59   26   27 1
    60   26   63 1
    61   26   78 1
    62   27   28 1
    63   27   64 1
    64   27   65 1
    65   28   33 1
    66   28   29 1
    67   28   66 1
    68   29   30 1
    69   29   67 1
    70   29   68 1
    71   30   31 1
    72   30   69 1
    73   30   70 1
    74   31   32 1
    75   31   71 1
    76   31   72 1
    77   32   33 1
    78   32   73 1
    79   32   76 1
    80   33   74 1
    81   33   75 1
@<TRIPOS>MOLECULE
CHEMBL1097939
   52    53     0     0     0
SMALL
USER_CHARGES

@<TRIPOS>ATOM
      1 C1         -0.0187    1.5258    0.0104 C.3       1 <0>        -0.1390
      2 C2          0.0021   -0.0041    0.0020 C.3       1 <0>        -0.5937
      3 C3          0.7182   -0.4975   -1.2568 C.3       1 <0>        -0.1447
      4 S1          0.8794   -0.6050    1.4716 S.o2      1 <0>         2.6105
      5 O1          0.7544   -2.0168    1.5731 O.2       1 <0>        -0.9553
      6 O2          2.1525    0.0185    1.5707 O.2       1 <0>        -0.9550
      7 N1          0.0171   -0.0111    2.7546 N.pl3     1 <0>        -1.1169
      8 C4         -1.3580   -0.4613    2.9842 C.3       1 <0>         0.1131
      9 C5         -1.7926   -0.0721    4.3986 C.3       1 <0>        -0.0910
     10 C6         -0.9426   -0.8304    5.4201 C.3       1 <0>        -0.1535
     11 C7         -3.2670   -0.4302    4.5958 C.3       1 <0>        -0.0828
     12 C8         -4.1170    0.3281    3.5743 C.3       1 <0>        -0.1197
     13 C9         -5.5914   -0.0300    3.7715 C.3       1 <0>        -0.1115
     14 C10        -6.0260    0.3591    5.1859 C.3       1 <0>        -0.0525
     15 C11        -5.1759   -0.3991    6.2074 C.3       1 <0>        -0.1115
     16 C12        -3.7016   -0.0410    6.0102 C.3       1 <0>        -0.1150
     17 C13        -7.4782    0.0064    5.3801 C.ar      1 <0>        -0.0456
     18 C14        -7.8898   -1.3088    5.2570 C.ar      1 <0>        -0.1161
     19 C15        -9.2176   -1.6387    5.4335 C.ar      1 <0>        -0.0670
     20 C16       -10.1468   -0.6418    5.7375 C.ar      1 <0>        -0.0341
     21 C17        -9.7244    0.6834    5.8608 C.ar      1 <0>        -0.0668
     22 C18        -8.3928    0.9985    5.6864 C.ar      1 <0>        -0.1182
     23 C19       -11.5268   -0.9769    5.9216 C.1       1 <0>         0.2504
     24 N2        -12.6216   -1.2427    6.0677 N.1       1 <0>        -0.4145
     25 H1          1.0039    1.9031    0.0027 H         1 <0>         0.0748
     26 H2         -0.5459    1.8868   -0.8726 H         1 <0>         0.0772
     27 H3         -0.5289    1.8773    0.9072 H         1 <0>         0.0701
     28 H4         -1.0205   -0.3814    0.0098 H         1 <0>         0.1336
     29 H5          1.7408   -0.1202   -1.2645 H         1 <0>         0.0729
     30 H6          0.7330   -1.5874   -1.2628 H         1 <0>         0.0724
     31 H7          0.1910   -0.1364   -2.1398 H         1 <0>         0.0830
     32 H8          0.4224    0.6348    3.3541 H         1 <0>         0.4186
     33 H9         -2.0205    0.0097    2.2580 H         1 <0>         0.0678
     34 H10        -1.4090   -1.5444    2.8735 H         1 <0>         0.0809
     35 H11        -1.6574    1.0004    4.5381 H         1 <0>         0.0796
     36 H12         0.1078   -0.5753    5.2796 H         1 <0>         0.0568
     37 H13        -1.2522   -0.5531    6.4277 H         1 <0>         0.0618
     38 H14        -1.0778   -1.9029    5.2806 H         1 <0>         0.0588
     39 H15        -3.4022   -1.5027    4.4563 H         1 <0>         0.0764
     40 H16        -3.9818    1.4006    3.7138 H         1 <0>         0.0657
     41 H17        -3.8074    0.0508    2.5667 H         1 <0>         0.0670
     42 H18        -6.1969    0.5102    3.0438 H         1 <0>         0.0658
     43 H19        -5.7266   -1.1026    3.6320 H         1 <0>         0.0671
     44 H20        -5.8908    1.4317    5.3254 H         1 <0>         0.0822
     45 H21        -5.4856   -0.1219    7.2151 H         1 <0>         0.0659
     46 H22        -5.3111   -1.4717    6.0679 H         1 <0>         0.0667
     47 H23        -3.0960   -0.5812    6.7379 H         1 <0>         0.0698
     48 H24        -3.5664    1.0315    6.1497 H         1 <0>         0.0641
     49 H25        -7.1700   -2.0788    5.0218 H         1 <0>         0.1330
     50 H26        -9.5377   -2.6656    5.3363 H         1 <0>         0.1326
     51 H27       -10.4379    1.4593    6.0958 H         1 <0>         0.1326
     52 H28        -8.0640    2.0224    5.7855 H         1 <0>         0.1328
@<TRIPOS>BOND
     1    1    2 1
     2    1   25 1
     3    1   26 1
     4    1   27 1
     5    2    3 1
     6    2    4 1
     7    2   28 1
     8    3   29 1
     9    3   30 1
    10    3   31 1
    11    4    5 2
    12    4    6 2
    13    4    7 1
    14    7    8 1
    15    7   32 1
    16    8    9 1
    17    8   33 1
    18    8   34 1
    19    9   10 1
    20    9   11 1
    21    9   35 1
    22   10   36 1
    23   10   37 1
    24   10   38 1
    25   11   16 1
    26   11   12 1
    27   11   39 1
    28   12   13 1
    29   12   40 1
    30   12   41 1
    31   13   14 1
    32   13   42 1
    33   13   43 1
    34   14   15 1
    35   14   17 1
    36   14   44 1
    37   15   16 1
    38   15   45 1
    39   15   46 1
    40   16   47 1
    41   16   48 1
    42   17   22 ar
    43   17   18 ar
    44   18   19 ar
    45   18   49 1
    46   19   20 ar
    47   19   50 1
    48   20   21 ar
    49   20   23 1
    50   21   22 ar
    51   21   51 1
    52   22   52 1
    53   23   24 3
@<TRIPOS>MOLECULE
CHEMBL1097939
   52    53     0     0     0
SMALL
USER_CHARGES

@<TRIPOS>ATOM
      1 C1         -0.0187    1.5258    0.0104 C.3       1 <0>        -0.1391
      2 C2          0.0021   -0.0041    0.0020 C.3       1 <0>        -0.5935
      3 C3          0.7182   -0.4975   -1.2568 C.3       1 <0>        -0.1446
      4 S1          0.8794   -0.6050    1.4716 S.o2      1 <0>         2.6104
      5 O1          0.7544   -2.0168    1.5731 O.2       1 <0>        -0.9554
      6 O2          2.1525    0.0185    1.5707 O.2       1 <0>        -0.9550
      7 N1          0.0171   -0.0111    2.7546 N.pl3     1 <0>        -1.1175
      8 C4         -1.3580   -0.4613    2.9842 C.3       1 <0>         0.1131
      9 C5         -1.7926   -0.0721    4.3986 C.3       1 <0>        -0.0935
     10 C6         -1.8410    1.4526    4.5159 C.3       1 <0>        -0.1530
     11 C7         -3.1806   -0.6497    4.6827 C.3       1 <0>        -0.0812
     12 C8         -3.6152   -0.2606    6.0972 C.3       1 <0>        -0.1153
     13 C9         -5.0032   -0.8382    6.3813 C.3       1 <0>        -0.1107
     14 C10        -4.9548   -2.3629    6.2640 C.3       1 <0>        -0.0533
     15 C11        -4.5202   -2.7521    4.8496 C.3       1 <0>        -0.1109
     16 C12        -3.1322   -2.1745    4.5654 C.3       1 <0>        -0.1223
     17 C13        -6.3219   -2.9319    6.5439 C.ar      1 <0>        -0.0450
     18 C14        -7.3940   -2.5719    5.7467 C.ar      1 <0>        -0.1163
     19 C15        -8.6481   -3.0889    5.9972 C.ar      1 <0>        -0.0673
     20 C16        -8.8342   -3.9778    7.0579 C.ar      1 <0>        -0.0345
     21 C17        -7.7478   -4.3371    7.8581 C.ar      1 <0>        -0.0665
     22 C18        -6.4981   -3.8162    7.5933 C.ar      1 <0>        -0.1180
     23 C19       -10.1334   -4.5181    7.3241 C.1       1 <0>         0.2507
     24 N2        -11.1640   -4.9467    7.5353 N.1       1 <0>        -0.4148
     25 H1          1.0039    1.9031    0.0027 H         1 <0>         0.0748
     26 H2         -0.5459    1.8868   -0.8726 H         1 <0>         0.0772
     27 H3         -0.5289    1.8773    0.9072 H         1 <0>         0.0701
     28 H4         -1.0205   -0.3814    0.0098 H         1 <0>         0.1338
     29 H5          1.7408   -0.1202   -1.2645 H         1 <0>         0.0729
     30 H6          0.7330   -1.5874   -1.2628 H         1 <0>         0.0725
     31 H7          0.1910   -0.1364   -2.1398 H         1 <0>         0.0830
     32 H8          0.4224    0.6348    3.3541 H         1 <0>         0.4182
     33 H9         -2.0205    0.0097    2.2580 H         1 <0>         0.0645
     34 H10        -1.4090   -1.5444    2.8735 H         1 <0>         0.0846
     35 H11        -1.0789   -0.4696    5.1203 H         1 <0>         0.0820
     36 H12        -2.1506    1.7299    5.5236 H         1 <0>         0.0635
     37 H13        -0.8521    1.8641    4.3135 H         1 <0>         0.0553
     38 H14        -2.5546    1.8501    3.7942 H         1 <0>         0.0579
     39 H15        -3.8942   -0.2523    3.9611 H         1 <0>         0.0751
     40 H16        -2.9015   -0.6581    6.8188 H         1 <0>         0.0647
     41 H17        -3.6496    0.8257    6.1807 H         1 <0>         0.0690
     42 H18        -5.3128   -0.5610    7.3890 H         1 <0>         0.0657
     43 H19        -5.7168   -0.4407    5.6596 H         1 <0>         0.0662
     44 H20        -4.2412   -2.7604    6.9857 H         1 <0>         0.0827
     45 H21        -4.4858   -3.8383    4.7660 H         1 <0>         0.0667
     46 H22        -5.2339   -2.3546    4.1279 H         1 <0>         0.0664
     47 H23        -2.8226   -2.4517    3.5578 H         1 <0>         0.0692
     48 H24        -2.4186   -2.5720    5.2871 H         1 <0>         0.0670
     49 H25        -7.2487   -1.8843    4.9266 H         1 <0>         0.1327
     50 H26        -9.4842   -2.8066    5.3746 H         1 <0>         0.1323
     51 H27        -7.8848   -5.0241    8.6801 H         1 <0>         0.1327
     52 H28        -5.6562   -4.0964    8.2089 H         1 <0>         0.1331
@<TRIPOS>BOND
     1    1    2 1
     2    1   25 1
     3    1   26 1
     4    1   27 1
     5    2    3 1
     6    2    4 1
     7    2   28 1
     8    3   29 1
     9    3   30 1
    10    3   31 1
    11    4    5 2
    12    4    6 2
    13    4    7 1
    14    7    8 1
    15    7   32 1
    16    8    9 1
    17    8   33 1
    18    8   34 1
    19    9   10 1
    20    9   11 1
    21    9   35 1
    22   10   36 1
    23   10   37 1
    24   10   38 1
    25   11   16 1
    26   11   12 1
    27   11   39 1
    28   12   13 1
    29   12   40 1
    30   12   41 1
    31   13   14 1
    32   13   42 1
    33   13   43 1
    34   14   15 1
    35   14   17 1
    36   14   44 1
    37   15   16 1
    38   15   45 1
    39   15   46 1
    40   16   47 1
    41   16   48 1
    42   17   22 ar
    43   17   18 ar
    44   18   19 ar
    45   18   49 1
    46   19   20 ar
    47   19   50 1
    48   20   21 ar
    49   20   23 1
    50   21   22 ar
    51   21   51 1
    52   22   52 1
    53   23   24 3
@<TRIPOS>MOLECULE
CHEMBL90242
   31    34     0     0     0
SMALL
USER_CHARGES

@<TRIPOS>ATOM
      1 C1          0.0087    1.4229    0.0953 C.ar      1 <0>        -0.0688
      2 C2          1.2133    2.0932    0.0637 C.ar      1 <0>        -0.1480
      3 C3          2.4050    1.3849   -0.0371 C.ar      1 <0>         0.1597
      4 C4          2.3869    0.0013   -0.1067 C.ar      1 <0>        -0.0628
      5 C5          1.1764   -0.6794   -0.0753 C.ar      1 <0>         0.1601
      6 C6         -0.0194    0.0341    0.0265 C.ar      1 <0>         0.1702
      7 N1         -1.2422   -0.6319    0.0593 N.am      1 <0>        -0.6370
      8 C7         -1.2851   -1.9781   -0.0062 C.2       1 <0>         0.6098
      9 C8         -0.0265   -2.7385   -0.1133 C.2       1 <0>         0.1319
     10 N2          1.1632   -2.0717   -0.1457 N.pl3     1 <0>        -0.2571
     11 N3          2.1058   -2.9450   -0.2413 N.2       1 <0>        -0.2509
     12 C9          1.5699   -4.1517   -0.2734 C.2       1 <0>         0.1822
     13 N4          0.2393   -4.0251   -0.1930 N.2       1 <0>        -0.3814
     14 C10         2.3121   -5.4243   -0.3790 C.2       1 <0>         0.5736
     15 O1          3.5331   -5.4164   -0.4456 O.co2     1 <0>        -0.6483
     16 O2          1.7056   -6.4859   -0.3998 O.co2     1 <0>        -0.6404
     17 O3         -2.3528   -2.5601    0.0232 O.2       1 <0>        -0.4617
     18 N5          3.6282    2.0722   -0.0689 N.pl3     1 <0>        -0.4478
     19 C11         4.1095    2.9371    0.8675 C.2       1 <0>         0.1590
     20 N6          5.2755    3.3494    0.4495 N.2       1 <0>        -0.2837
     21 N7          5.5535    2.8024   -0.6801 N.2       1 <0>        -0.2865
     22 C12         4.5822    2.0077   -1.0396 C.2       1 <0>         0.1775
     23 C13         1.2378    3.5982    0.1382 C.3       1 <0>         0.5150
     24 F1         -0.0714    4.0889    0.0899 F         1 <0>        -0.1669
     25 F2          1.8410    3.9960    1.3361 F         1 <0>        -0.1687
     26 F3          1.9666    4.1067   -0.9423 F         1 <0>        -0.1645
     27 H1         -0.9145    1.9772    0.1782 H         1 <0>         0.1730
     28 H2          3.3135   -0.5478   -0.1857 H         1 <0>         0.1736
     29 H3          3.6181    3.2275    1.7844 H         1 <0>         0.2285
     30 H4          4.5412    1.4125   -1.9399 H         1 <0>         0.2262
     31 H5         -2.0664   -0.1253    0.1299 H         1 <0>         0.4340
@<TRIPOS>BOND
     1    1    6 ar
     2    1    2 ar
     3    1   27 1
     4    2    3 ar
     5    2   23 1
     6    3    4 ar
     7    3   18 1
     8    4    5 ar
     9    4   28 1
    10    5   10 1
    11    5    6 ar
    12    6    7 1
    13    7    8 am
    14    7   31 1
    15    8    9 1
    16    8   17 2
    17    9   13 2
    18    9   10 1
    19   10   11 1
    20   11   12 2
    21   12   13 1
    22   12   14 1
    23   14   15 2
    24   14   16 1
    25   18   22 1
    26   18   19 1
    27   19   20 2
    28   19   29 1
    29   20   21 1
    30   21   22 2
    31   22   30 1
    32   23   24 1
    33   23   25 1
    34   23   26 1
@<TRIPOS>MOLECULE
CHEMBL90242
   30    33     0     0     0
SMALL
USER_CHARGES

@<TRIPOS>ATOM
      1 C1          0.0095    1.4344    0.0953 C.ar      1 <0>        -0.0731
      2 C2          1.2015    2.0969    0.0631 C.ar      1 <0>        -0.1438
      3 C3          2.4000    1.3942   -0.0374 C.ar      1 <0>         0.0611
      4 C4          2.3948    0.0115   -0.1060 C.ar      1 <0>        -0.0425
      5 C5          1.1885   -0.6771   -0.0743 C.ar      1 <0>         0.0516
      6 C6         -0.0196    0.0345    0.0273 C.ar      1 <0>         0.2213
      7 N1         -1.2078   -0.6187    0.0593 N.2       1 <0>        -0.6085
      8 C7         -1.2651   -1.9266   -0.0027 C.2       1 <0>         0.5177
      9 C8         -0.0306   -2.7090   -0.1087 C.2       1 <0>         0.1377
     10 N2          1.1725   -2.0601   -0.1422 N.pl3     1 <0>        -0.2376
     11 N3          2.1004   -2.9463   -0.2371 N.2       1 <0>        -0.2897
     12 C9          1.5484   -4.1453   -0.2666 C.2       1 <0>         0.1517
     13 N4          0.2189   -4.0020   -0.1871 N.2       1 <0>        -0.4224
     14 C10         2.2743   -5.4281   -0.3698 C.2       1 <0>         0.5815
     15 O1          3.4951   -5.4361   -0.4367 O.co2     1 <0>        -0.6681
     16 O2          1.6541   -6.4817   -0.3884 O.co2     1 <0>        -0.6575
     17 O3         -2.4645   -2.5547    0.0317 O.3       1 <0>        -0.6100
     18 N5          3.6169    2.0902   -0.0698 N.pl3     1 <0>        -0.4174
     19 C11         4.0922    2.9590    0.8664 C.2       1 <0>         0.1515
     20 N6          5.2551    3.3793    0.4480 N.2       1 <0>        -0.3016
     21 N7          5.5369    2.8341   -0.6814 N.2       1 <0>        -0.3033
     22 C12         4.5711    2.0329   -1.0412 C.2       1 <0>         0.1684
     23 C13         1.2219    3.6020    0.1364 C.3       1 <0>         0.5127
     24 F1         -0.0886    4.0891    0.0872 F         1 <0>        -0.1717
     25 F2          1.8236    4.0025    1.3343 F         1 <0>        -0.1780
     26 F3          1.9497    4.1117   -0.9442 F         1 <0>        -0.1745
     27 H1         -0.9134    1.9893    0.1780 H         1 <0>         0.1572
     28 H2          3.3257   -0.5303   -0.1842 H         1 <0>         0.1468
     29 H3          3.5989    3.2461    1.7832 H         1 <0>         0.2222
     30 H4          4.5341    1.4378   -1.9416 H         1 <0>         0.2182
@<TRIPOS>BOND
     1    1    6 ar
     2    1    2 ar
     3    1   27 1
     4    2    3 ar
     5    2   23 1
     6    3    4 ar
     7    3   18 1
     8    4    5 ar
     9    4   28 1
    10    5   10 1
    11    5    6 ar
    12    6    7 1
    13    7    8 2
    14    8    9 1
    15    8   17 1
    16    9   13 2
    17    9   10 1
    18   10   11 1
    19   11   12 2
    20   12   13 1
    21   12   14 1
    22   14   15 2
    23   14   16 1
    24   18   22 1
    25   18   19 1
    26   19   20 2
    27   19   29 1
    28   20   21 1
    29   21   22 2
    30   22   30 1
    31   23   24 1
    32   23   25 1
    33   23   26 1
@<TRIPOS>MOLECULE
CHEMBL24875
   43    47     0     0     0
SMALL
USER_CHARGES

@<TRIPOS>ATOM
      1 C1         -0.0166    1.3750    0.0096 C.ar      1 <0>        -0.1149
      2 C2          1.1679    2.0902    0.0021 C.ar      1 <0>        -0.1014
      3 C3          2.3818    1.4245   -0.0130 C.ar      1 <0>         0.0057
      4 C4          2.4103    0.0481   -0.0206 C.ar      1 <0>        -0.0587
      5 C5          1.2236   -0.6827   -0.0132 C.ar      1 <0>        -0.0649
      6 C6          0.0021   -0.0041    0.0020 C.ar      1 <0>        -0.1086
      7 C7          1.5392   -2.1309   -0.0231 C.2       1 <0>         0.1470
      8 C8          2.8687   -2.3149   -0.0363 C.2       1 <0>         0.0058
      9 N1          3.4202   -3.5828   -0.0475 N.pl3     1 <0>        -0.3395
     10 C9          4.6979   -4.0223   -0.0610 C.2       1 <0>        -0.0145
     11 C10         4.6475   -5.4004   -0.0669 C.2       1 <0>         0.0734
     12 N2          3.3583   -5.7656   -0.0571 N.2       1 <0>        -0.3999
     13 C11         2.6070   -4.6859   -0.0454 C.2       1 <0>         0.1249
     14 C12         1.1495   -4.4828   -0.0310 C.2       1 <0>         0.6042
     15 N3          0.6709   -3.2234   -0.0209 N.am      1 <0>        -0.6271
     16 O1          0.3906   -5.4348   -0.0289 O.2       1 <0>        -0.4996
     17 C13         5.8131   -6.3155   -0.0816 C.ar      1 <0>        -0.0245
     18 C14         7.1082   -5.7949   -0.0849 C.ar      1 <0>        -0.1194
     19 C15         8.1875   -6.6400   -0.0985 C.ar      1 <0>        -0.0864
     20 C16         7.9903   -8.0251   -0.1086 C.ar      1 <0>        -0.1278
     21 C17         6.6915   -8.5452   -0.1047 C.ar      1 <0>        -0.0887
     22 C18         5.6145   -7.6972   -0.0862 C.ar      1 <0>        -0.1056
     23 C19         9.1489   -8.9347   -0.1236 C.2       1 <0>         0.5199
     24 O2         10.2842   -8.4792   -0.1274 O.co2     1 <0>        -0.6892
     25 O3          8.9757  -10.1457   -0.1324 O.co2     1 <0>        -0.6901
     26 C20         3.5347   -0.9563   -0.0359 C.3       1 <0>        -0.0240
     27 C21         3.6705    2.2057   -0.0216 C.3       1 <0>        -0.1622
     28 C22         4.1505    2.3673   -1.4409 C.2       1 <0>         0.4971
     29 O4          3.5059    1.8922   -2.3603 O.co2     1 <0>        -0.6850
     30 O5          5.1835    2.9732   -1.6699 O.co2     1 <0>        -0.6987
     31 H1         -0.9607    1.8993    0.0259 H         1 <0>         0.1237
     32 H2          1.1455    3.1700    0.0078 H         1 <0>         0.1247
     33 H3         -0.9250   -0.5581    0.0082 H         1 <0>         0.1179
     34 H4          5.5883   -3.4112   -0.0666 H         1 <0>         0.1941
     35 H5          7.2600   -4.7256   -0.0772 H         1 <0>         0.1173
     36 H6          9.1894   -6.2368   -0.1018 H         1 <0>         0.1290
     37 H7          6.5375   -9.6141   -0.1124 H         1 <0>         0.1272
     38 H8          4.6118   -8.0983   -0.0795 H         1 <0>         0.1234
     39 H9          4.1381   -0.8325   -0.9351 H         1 <0>         0.1197
     40 H10         4.1546   -0.8412    0.8533 H         1 <0>         0.1091
     41 H11         3.5027    3.1884    0.4193 H         1 <0>         0.0727
     42 H12         4.4233    1.6713    0.5579 H         1 <0>         0.0730
     43 H13        -0.2876   -3.0745   -0.0110 H         1 <0>         0.4208
@<TRIPOS>BOND
     1    1    6 ar
     2    1    2 ar
     3    1   31 1
     4    2    3 ar
     5    2   32 1
     6    3    4 ar
     7    3   27 1
     8    4   26 1
     9    4    5 ar
    10    5    6 ar
    11    5    7 1
    12    6   33 1
    13    7   15 1
    14    7    8 2
    15    8    9 1
    16    8   26 1
    17    9   13 1
    18    9   10 1
    19   10   11 2
    20   10   34 1
    21   11   12 1
    22   11   17 1
    23   12   13 2
    24   13   14 1
    25   14   15 am
    26   14   16 2
    27   15   43 1
    28   17   22 ar
    29   17   18 ar
    30   18   19 ar
    31   18   35 1
    32   19   20 ar
    33   19   36 1
    34   20   21 ar
    35   20   23 1
    36   21   22 ar
    37   21   37 1
    38   22   38 1
    39   23   24 2
    40   23   25 1
    41   26   39 1
    42   26   40 1
    43   27   28 1
    44   27   41 1
    45   27   42 1
    46   28   29 2
    47   28   30 1
@<TRIPOS>MOLECULE
CHEMBL24875
   42    46     0     0     0
SMALL
USER_CHARGES

@<TRIPOS>ATOM
      1 C1         -0.0166    1.3752    0.0096 C.ar      1 <0>        -0.1297
      2 C2          1.1682    2.0895    0.0021 C.ar      1 <0>        -0.1205
      3 C3          2.3808    1.4224   -0.0130 C.ar      1 <0>        -0.0095
      4 C4          2.4081    0.0450   -0.0206 C.ar      1 <0>        -0.0691
      5 C5          1.2216   -0.6832   -0.0132 C.ar      1 <0>        -0.0300
      6 C6          0.0021   -0.0041    0.0020 C.ar      1 <0>        -0.1006
      7 C7          1.5350   -2.1353   -0.0235 C.2       1 <0>         0.1960
      8 C8          2.8811   -2.3157   -0.0369 C.2       1 <0>        -0.1424
      9 N1          3.4097   -3.5777   -0.0486 N.pl3     1 <0>        -0.2996
     10 C9          4.6814   -4.0558   -0.0626 C.2       1 <0>        -0.0826
     11 C10         4.5956   -5.4200   -0.0689 C.2       1 <0>         0.0523
     12 N2          3.2975   -5.7585   -0.0589 N.2       1 <0>        -0.4466
     13 C11         2.5651   -4.6603   -0.0466 C.2       1 <0>         0.1424
     14 C12         1.1661   -4.4302   -0.0332 C.2       1 <0>         0.4908
     15 N3          0.7058   -3.2020   -0.0215 N.2       1 <0>        -0.6055
     16 O1          0.3058   -5.4777   -0.0308 O.3       1 <0>        -0.6665
     17 C13         5.7394   -6.3624   -0.0841 C.ar      1 <0>         0.0053
     18 C14         7.0463   -5.8725   -0.0875 C.ar      1 <0>        -0.1299
     19 C15         8.1055   -6.7429   -0.1011 C.ar      1 <0>        -0.0866
     20 C16         7.8757   -8.1229   -0.1116 C.ar      1 <0>        -0.1480
     21 C17         6.5650   -8.6121   -0.1081 C.ar      1 <0>        -0.0879
     22 C18         5.5083   -7.7389   -0.0891 C.ar      1 <0>        -0.1140
     23 C19         9.0125   -9.0597   -0.1267 C.2       1 <0>         0.5248
     24 O2         10.1583   -8.6311   -0.1301 O.co2     1 <0>        -0.6974
     25 O3          8.8108  -10.2662   -0.1358 O.co2     1 <0>        -0.6972
     26 C20         3.5371   -0.9553   -0.0362 C.3       1 <0>        -0.0005
     27 C21         3.6703    2.2023   -0.0216 C.3       1 <0>        -0.1539
     28 C22         4.1505    2.3633   -1.4410 C.2       1 <0>         0.4977
     29 O4          3.5053    1.8889   -2.3603 O.co2     1 <0>        -0.6814
     30 O5          5.1841    2.9681   -1.6699 O.co2     1 <0>        -0.7120
     31 H1         -0.9605    1.8999    0.0259 H         1 <0>         0.1130
     32 H2          1.1469    3.1693    0.0077 H         1 <0>         0.1128
     33 H3         -0.9252   -0.5576    0.0082 H         1 <0>         0.1197
     34 H4          5.5881   -3.4692   -0.0681 H         1 <0>         0.1711
     35 H5          7.2233   -4.8072   -0.0798 H         1 <0>         0.1146
     36 H6          9.1166   -6.3634   -0.1041 H         1 <0>         0.1225
     37 H7          6.3858   -9.6771   -0.1166 H         1 <0>         0.1217
     38 H8          4.4964   -8.1163   -0.0820 H         1 <0>         0.1237
     39 H9          4.1400   -0.8280   -0.9353 H         1 <0>         0.0911
     40 H10         4.1567   -0.8370    0.8527 H         1 <0>         0.0797
     41 H11         3.5035    3.1851    0.4193 H         1 <0>         0.0644
     42 H12         4.4225    1.6670    0.5579 H         1 <0>         0.0679
@<TRIPOS>BOND
     1    1    6 ar
     2    1    2 ar
     3    1   31 1
     4    2    3 ar
     5    2   32 1
     6    3    4 ar
     7    3   27 1
     8    4   26 1
     9    4    5 ar
    10    5    6 ar
    11    5    7 1
    12    6   33 1
    13    7   15 1
    14    7    8 2
    15    8    9 1
    16    8   26 1
    17    9   13 1
    18    9   10 1
    19   10   11 2
    20   10   34 1
    21   11   12 1
    22   11   17 1
    23   12   13 2
    24   13   14 1
    25   14   15 2
    26   14   16 1
    27   17   22 ar
    28   17   18 ar
    29   18   19 ar
    30   18   35 1
    31   19   20 ar
    32   19   36 1
    33   20   21 ar
    34   20   23 1
    35   21   22 ar
    36   21   37 1
    37   22   38 1
    38   23   24 2
    39   23   25 1
    40   26   39 1
    41   26   40 1
    42   27   28 1
    43   27   41 1
    44   27   42 1
    45   28   29 2
    46   28   30 1
@<TRIPOS>MOLECULE
CHEMBL345094
   31    34     0     0     0
SMALL
USER_CHARGES

@<TRIPOS>ATOM
      1 C1         -0.0161    1.3369    0.0094 C.2       1 <0>        -0.0300
      2 C2          1.2575    1.7747   -0.0004 C.2       1 <0>        -0.0472
      3 N1          2.0593    0.6630   -0.0140 N.pl3     1 <0>        -0.4092
      4 C3          1.2395   -0.4196   -0.0120 C.2       1 <0>         0.2004
      5 N2          0.0021   -0.0041    0.0020 N.2       1 <0>        -0.4869
      6 C4          3.4623    0.6468   -0.0282 C.ar      1 <0>         0.1255
      7 C5          4.1484    1.4162   -0.9435 C.ar      1 <0>        -0.1051
      8 C6          5.5509    1.4010   -0.9590 C.ar      1 <0>         0.1990
      9 C7          6.2465    0.5974   -0.0364 C.ar      1 <0>         0.0646
     10 C8          5.5422   -0.1733    0.8808 C.ar      1 <0>        -0.0971
     11 C9          4.1594   -0.1463    0.8908 C.ar      1 <0>         0.0641
     12 N3          3.4535   -0.9197    1.8209 N.pl3     1 <0>        -0.4005
     13 C10         3.6451   -2.2511    2.0865 C.2       1 <0>        -0.0540
     14 C11         2.7585   -2.5897    3.0418 C.2       1 <0>        -0.0300
     15 N4          2.0429   -1.4993    3.3547 N.2       1 <0>        -0.4882
     16 C12         2.4535   -0.4911    2.6345 C.2       1 <0>         0.2000
     17 N5          7.6298    0.5756   -0.0429 N.am      1 <0>        -0.6310
     18 C13         8.2937    1.3330   -0.9429 C.2       1 <0>         0.4766
     19 C14         7.5266    2.1588   -1.8899 C.2       1 <0>         0.4225
     20 N6          6.2203    2.1546   -1.8548 N.2       1 <0>        -0.6053
     21 O1          8.1764    2.9252   -2.7994 O.3       1 <0>        -0.6127
     22 O2          9.5110    1.3330   -0.9704 O.2       1 <0>        -0.5157
     23 H1         -0.8993    1.9583    0.0252 H         1 <0>         0.1708
     24 H2          1.5843    2.8040    0.0017 H         1 <0>         0.1771
     25 H3          1.5579   -1.4516   -0.0212 H         1 <0>         0.1942
     26 H4          3.6066    2.0297   -1.6482 H         1 <0>         0.1453
     27 H5          6.0751   -0.7906    1.5890 H         1 <0>         0.1332
     28 H6          4.3680   -2.9032    1.6190 H         1 <0>         0.1736
     29 H7          2.6436   -3.5700    3.4804 H         1 <0>         0.1694
     30 H8          2.0621    0.5146    2.6765 H         1 <0>         0.1944
     31 H9          8.1160    0.0244    0.5902 H         1 <0>         0.4023
@<TRIPOS>BOND
     1    1    5 1
     2    1    2 2
     3    1   23 1
     4    2    3 1
     5    2   24 1
     6    3    4 1
     7    3    6 1
     8    4    5 2
     9    4   25 1
    10    6   11 ar
    11    6    7 ar
    12    7    8 ar
    13    7   26 1
    14    8   20 1
    15    8    9 ar
    16    9   10 ar
    17    9   17 1
    18   10   11 ar
    19   10   27 1
    20   11   12 1
    21   12   16 1
    22   12   13 1
    23   13   14 2
    24   13   28 1
    25   14   15 1
    26   14   29 1
    27   15   16 2
    28   16   30 1
    29   17   18 am
    30   17   31 1
    31   18   19 1
    32   18   22 2
    33   19   20 2
    34   19   21 1
@<TRIPOS>MOLECULE
CHEMBL345094
   32    35     0     0     0
SMALL
USER_CHARGES

@<TRIPOS>ATOM
      1 C1         -0.0161    1.3369    0.0094 C.2       1 <0>        -0.0125
      2 C2          1.2575    1.7747   -0.0004 C.2       1 <0>        -0.0548
      3 N1          2.0593    0.6630   -0.0140 N.pl3     1 <0>        -0.4257
      4 C3          1.2395   -0.4196   -0.0120 C.2       1 <0>         0.2075
      5 N2          0.0021   -0.0041    0.0020 N.2       1 <0>        -0.4743
      6 C4          3.4622    0.6468   -0.0279 C.ar      1 <0>         0.1406
      7 C5          4.1538    1.4186   -0.9458 C.ar      1 <0>        -0.0989
      8 C6          5.5436    1.4037   -0.9616 C.ar      1 <0>         0.1451
      9 C7          6.2416    0.6082   -0.0494 C.ar      1 <0>         0.1453
     10 C8          5.5437   -0.1654    0.8706 C.ar      1 <0>        -0.0991
     11 C9          4.1596   -0.1432    0.8874 C.ar      1 <0>         0.1407
     12 N3          3.4572   -0.9205    1.8207 N.pl3     1 <0>        -0.4257
     13 C10         3.6535   -2.2510    2.0851 C.2       1 <0>        -0.0548
     14 C11         2.7711   -2.5927    3.0435 C.2       1 <0>        -0.0126
     15 N4          2.0535   -1.5044    3.3589 N.2       1 <0>        -0.4743
     16 C12         2.4587   -0.4952    2.6369 C.2       1 <0>         0.2074
     17 N5          7.6339    0.5824   -0.0534 N.am      1 <0>        -0.6330
     18 C13         8.3218    1.3288   -0.9409 C.2       1 <0>         0.5112
     19 C14         7.5770    2.1780   -1.9139 C.2       1 <0>         0.5111
     20 N6          6.2290    2.1837   -1.8896 N.am      1 <0>        -0.6330
     21 O1          8.1788    2.8579   -2.7210 O.2       1 <0>        -0.4516
     22 O2          9.5364    1.3099   -0.9472 O.2       1 <0>        -0.4515
     23 H1         -0.8993    1.9583    0.0252 H         1 <0>         0.1776
     24 H2          1.5844    2.8040    0.0017 H         1 <0>         0.1814
     25 H3          1.5580   -1.4516   -0.0209 H         1 <0>         0.1999
     26 H4          3.6129    2.0327   -1.6505 H         1 <0>         0.1596
     27 H5          6.0819   -0.7811    1.5761 H         1 <0>         0.1596
     28 H6          4.3768   -2.9008    1.6149 H         1 <0>         0.1814
     29 H7          2.6601   -3.5735    3.4817 H         1 <0>         0.1776
     30 H8          2.0640    0.5092    2.6795 H         1 <0>         0.1999
     31 H9          8.1097    0.0267    0.5836 H         1 <0>         0.4279
     32 H10         5.7356    2.7323   -2.5193 H         1 <0>         0.4279
@<TRIPOS>BOND
     1    1    5 1
     2    1    2 2
     3    1   23 1
     4    2    3 1
     5    2   24 1
     6    3    4 1
     7    3    6 1
     8    4    5 2
     9    4   25 1
    10    6   11 ar
    11    6    7 ar
    12    7    8 ar
    13    7   26 1
    14    8   20 1
    15    8    9 ar
    16    9   10 ar
    17    9   17 1
    18   10   11 ar
    19   10   27 1
    20   11   12 1
    21   12   16 1
    22   12   13 1
    23   13   14 2
    24   13   28 1
    25   14   15 1
    26   14   29 1
    27   15   16 2
    28   16   30 1
    29   17   18 am
    30   17   31 1
    31   18   19 1
    32   18   22 2
    33   19   20 am
    34   19   21 2
    35   20   32 1
@<TRIPOS>MOLECULE
CHEMBL553628
   36    38     0     0     0
SMALL
USER_CHARGES

@<TRIPOS>ATOM
      1 C1         -0.0168    1.3860    0.0097 C.ar      1 <0>        -0.1199
      2 C2          1.1685    2.0929    0.0021 C.ar      1 <0>         0.0017
      3 C3          2.3800    1.4230   -0.0130 C.ar      1 <0>        -0.0192
      4 C4          2.4113    0.0433   -0.0208 C.ar      1 <0>        -0.0548
      5 C5          1.2238   -0.6797   -0.0138 C.ar      1 <0>         0.1201
      6 C6          0.0021   -0.0041    0.0020 C.ar      1 <0>         0.1745
      7 N1         -1.1976   -0.7101    0.0097 N.am      1 <0>        -0.6337
      8 C7         -1.1886   -2.0585    0.0024 C.2       1 <0>         0.5115
      9 C8          0.1165   -2.7803   -0.0140 C.2       1 <0>         0.5113
     10 N2          1.2635   -2.0712   -0.0221 N.am      1 <0>        -0.6319
     11 O1          0.1460   -3.9946   -0.0208 O.2       1 <0>        -0.4512
     12 O2         -2.2327   -2.6790    0.0094 O.2       1 <0>        -0.4475
     13 N3          3.6463    2.1893   -0.0215 N.pl3     1 <0>         0.0394
     14 O3          4.7055    1.6066   -0.0348 O.2       1 <0>        -0.1727
     15 O4          3.6215    3.3981   -0.0152 O.3       1 <0>        -0.1192
     16 C9          1.1440    3.5997    0.0100 C.3       1 <0>         0.0752
     17 N4          1.3637    4.1001   -1.3536 N.3       1 <0>        -0.5185
     18 C10         1.5590    5.5595   -1.3550 C.3       1 <0>         0.0575
     19 C11         2.0805    5.9778   -2.7322 C.3       1 <0>        -0.0895
     20 C12         1.2261    5.3642   -3.8058 C.2       1 <0>        -0.1392
     21 C13         0.4190    4.3719   -3.5834 C.2       1 <0>        -0.1691
     22 C14         0.2459    3.7371   -2.2339 C.3       1 <0>         0.0783
     23 H1         -0.9594    1.9129    0.0260 H         1 <0>         0.1604
     24 H2          3.3587   -0.4751   -0.0326 H         1 <0>         0.1697
     25 H3          0.1759    3.9455    0.3723 H         1 <0>         0.0544
     26 H4          1.9314    3.9725    0.6651 H         1 <0>         0.1216
     27 H5          0.6093    6.0563   -1.1566 H         1 <0>         0.0385
     28 H6          2.2855    5.8326   -0.5897 H         1 <0>         0.0894
     29 H7          2.0466    7.0638   -2.8183 H         1 <0>         0.0777
     30 H8          3.1095    5.6375   -2.8489 H         1 <0>         0.0857
     31 H9          1.2860    5.7667   -4.8062 H         1 <0>         0.1063
     32 H10        -0.1566    3.9836   -4.4106 H         1 <0>         0.1095
     33 H11         0.2122    2.6535   -2.3463 H         1 <0>         0.0789
     34 H12        -0.6888    4.0807   -1.7907 H         1 <0>         0.0465
     35 H13         2.1173   -2.5313   -0.0330 H         1 <0>         0.4293
     36 H14        -2.0412   -0.2315    0.0206 H         1 <0>         0.4290
@<TRIPOS>BOND
     1    1    6 ar
     2    1    2 ar
     3    1   23 1
     4    2    3 ar
     5    2   16 1
     6    3    4 ar
     7    3   13 1
     8    4    5 ar
     9    4   24 1
    10    5   10 1
    11    5    6 ar
    12    6    7 1
    13    7    8 am
    14    7   36 1
    15    8    9 1
    16    8   12 2
    17    9   10 am
    18    9   11 2
    19   10   35 1
    20   13   14 2
    21   13   15 1
    22   16   17 1
    23   16   25 1
    24   16   26 1
    25   17   22 1
    26   17   18 1
    27   18   19 1
    28   18   27 1
    29   18   28 1
    30   19   20 1
    31   19   29 1
    32   19   30 1
    33   20   21 2
    34   20   31 1
    35   21   22 1
    36   21   32 1
    37   22   33 1
    38   22   34 1
@<TRIPOS>MOLECULE
CHEMBL553628
   37    39     0     0     0
SMALL
USER_CHARGES

@<TRIPOS>ATOM
      1 C1         -0.0168    1.3860    0.0097 C.ar      1 <0>        -0.0954
      2 C2          1.1685    2.0929    0.0021 C.ar      1 <0>        -0.0820
      3 C3          2.3800    1.4230   -0.0130 C.ar      1 <0>        -0.0277
      4 C4          2.4113    0.0433   -0.0208 C.ar      1 <0>        -0.0475
      5 C5          1.2238   -0.6797   -0.0138 C.ar      1 <0>         0.1566
      6 C6          0.0021   -0.0041    0.0020 C.ar      1 <0>         0.1841
      7 N1         -1.1976   -0.7101    0.0097 N.am      1 <0>        -0.6350
      8 C7         -1.1886   -2.0585    0.0024 C.2       1 <0>         0.5108
      9 C8          0.1165   -2.7803   -0.0140 C.2       1 <0>         0.5105
     10 N2          1.2635   -2.0712   -0.0221 N.am      1 <0>        -0.6349
     11 O1          0.1460   -3.9946   -0.0208 O.2       1 <0>        -0.4239
     12 O2         -2.2327   -2.6790    0.0094 O.2       1 <0>        -0.4222
     13 N3          3.6463    2.1893   -0.0215 N.pl3     1 <0>         0.0335
     14 O3          4.7055    1.6066   -0.0348 O.2       1 <0>        -0.0889
     15 O4          3.6215    3.3981   -0.0152 O.3       1 <0>        -0.2012
     16 C9          1.1440    3.5997    0.0100 C.3       1 <0>         0.0293
     17 N4          1.3637    4.1001   -1.3536 N.4       1 <0>        -0.3801
     18 C10         1.4466    5.5693   -1.3319 C.3       1 <0>        -0.0030
     19 C11         1.9178    6.0509   -2.7066 C.3       1 <0>        -0.1263
     20 C12         1.0884    5.4015   -3.7797 C.2       1 <0>        -0.1232
     21 C13         0.3491    4.3570   -3.5560 C.2       1 <0>        -0.2001
     22 C14         0.2421    3.6990   -2.2109 C.3       1 <0>         0.0250
     23 H1         -0.9594    1.9129    0.0260 H         1 <0>         0.1735
     24 H2          3.3587   -0.4751   -0.0326 H         1 <0>         0.1824
     25 H3          0.1759    3.9455    0.3723 H         1 <0>         0.1495
     26 H4          1.9314    3.9725    0.6651 H         1 <0>         0.1686
     27 H5          0.4642    5.9882   -1.1142 H         1 <0>         0.1343
     28 H6          2.1591    5.8845   -0.5696 H         1 <0>         0.1439
     29 H7          1.8087    7.1337   -2.7689 H         1 <0>         0.1282
     30 H8          2.9652    5.7834   -2.8455 H         1 <0>         0.1086
     31 H9          1.1079    5.8199   -4.7751 H         1 <0>         0.1411
     32 H10        -0.2162    3.9421   -4.3774 H         1 <0>         0.1497
     33 H11         0.2541    2.6165   -2.3372 H         1 <0>         0.1304
     34 H12        -0.6954    3.9935   -1.7391 H         1 <0>         0.1406
     35 H13         2.1173   -2.5313   -0.0330 H         1 <0>         0.4355
     36 H14        -2.0412   -0.2315    0.0206 H         1 <0>         0.4333
     37 H15         2.2225    3.7172   -1.7196 H         1 <0>         0.4217
@<TRIPOS>BOND
     1    1    6 ar
     2    1    2 ar
     3    1   23 1
     4    2    3 ar
     5    2   16 1
     6    3    4 ar
     7    3   13 1
     8    4    5 ar
     9    4   24 1
    10    5   10 1
    11    5    6 ar
    12    6    7 1
    13    7    8 am
    14    7   36 1
    15    8    9 1
    16    8   12 2
    17    9   10 am
    18    9   11 2
    19   10   35 1
    20   13   14 2
    21   13   15 1
    22   16   17 1
    23   16   25 1
    24   16   26 1
    25   17   22 1
    26   17   18 1
    27   17   37 1
    28   18   19 1
    29   18   27 1
    30   18   28 1
    31   19   20 1
    32   19   29 1
    33   19   30 1
    34   20   21 2
    35   20   31 1
    36   21   22 1
    37   21   32 1
    38   22   33 1
    39   22   34 1
@<TRIPOS>MOLECULE
CHEMBL421990
   43    47     0     0     0
SMALL
USER_CHARGES

@<TRIPOS>ATOM
      1 C1          1.8248    3.3275   -0.2333 C.ar      1 <0>        -0.1159
      2 C2          3.1932    3.3717   -0.4242 C.ar      1 <0>        -0.1184
      3 C3          3.9355    2.2065   -0.3779 C.ar      1 <0>        -0.1039
      4 C4          3.3095    0.9971   -0.1403 C.ar      1 <0>        -0.0756
      5 C5          1.9412    0.9531    0.0515 C.ar      1 <0>        -0.1044
      6 C6          1.1987    2.1181    0.0038 C.ar      1 <0>        -0.1186
      7 C7          4.1186   -0.2733   -0.0908 C.3       1 <0>        -0.0989
      8 C8          4.5789   -0.5209    1.3226 C.2       1 <0>         0.5152
      9 O1          4.2794    0.2576    2.2031 O.2       1 <0>        -0.5022
     10 N1          5.3234   -1.6075    1.6082 N.am      1 <0>        -0.6762
     11 C9          5.8317   -1.7873    2.8984 C.ar      1 <0>         0.1696
     12 C10         5.0877   -1.3836    4.0013 C.ar      1 <0>        -0.1161
     13 C11         5.5832   -1.5582    5.2748 C.ar      1 <0>        -0.0626
     14 C12         6.8392   -2.1440    5.4605 C.ar      1 <0>        -0.0807
     15 C13         7.5786   -2.5464    4.3489 C.ar      1 <0>        -0.0528
     16 C14         7.0793   -2.3752    3.0789 C.ar      1 <0>        -0.1211
     17 C15         8.8651   -3.1305    4.8757 C.3       1 <0>        -0.0184
     18 C16         8.7781   -3.0183    6.3819 C.2       1 <0>        -0.0077
     19 C17         7.6033   -2.4476    6.6935 C.2       1 <0>         0.1582
     20 N2          7.2553   -2.2206    8.0256 N.am      1 <0>        -0.6293
     21 C18         8.0908   -2.5689    9.0239 C.2       1 <0>         0.6005
     22 C19         9.3767   -3.1936    8.6835 C.2       1 <0>         0.1328
     23 N3          9.6756   -3.3970    7.3626 N.pl3     1 <0>        -0.3471
     24 C20        10.9022   -3.9794    7.3175 C.2       1 <0>        -0.0284
     25 C21        11.3245   -4.1187    8.5995 C.2       1 <0>        -0.0047
     26 N4         10.3834   -3.6359    9.4086 N.2       1 <0>        -0.4098
     27 O2          7.7862   -2.3696   10.1858 O.2       1 <0>        -0.4840
     28 H1          1.2455    4.2384   -0.2650 H         1 <0>         0.1227
     29 H2          3.6823    4.3165   -0.6098 H         1 <0>         0.1232
     30 H3          5.0045    2.2409   -0.5278 H         1 <0>         0.1197
     31 H4          1.4521    0.0082    0.2368 H         1 <0>         0.1200
     32 H5          0.1296    2.0836    0.1533 H         1 <0>         0.1233
     33 H6          3.5034   -1.1090   -0.4243 H         1 <0>         0.1090
     34 H7          4.9860   -0.1772   -0.7439 H         1 <0>         0.1091
     35 H8          5.5066   -2.2648    0.9188 H         1 <0>         0.4152
     36 H9          4.1174   -0.9311    3.8591 H         1 <0>         0.1490
     37 H10         5.0023   -1.2426    6.1288 H         1 <0>         0.1322
     38 H11         7.6564   -2.6933    2.2232 H         1 <0>         0.1379
     39 H12         8.9526   -4.1761    4.5804 H         1 <0>         0.1155
     40 H13         9.7171   -2.5611    4.5043 H         1 <0>         0.1151
     41 H14        11.4395   -4.2761    6.4289 H         1 <0>         0.1919
     42 H15        12.2649   -4.5489    8.9110 H         1 <0>         0.1916
     43 H16         6.4032   -1.8073    8.2352 H         1 <0>         0.4252
@<TRIPOS>BOND
     1    1    6 ar
     2    1    2 ar
     3    1   28 1
     4    2    3 ar
     5    2   29 1
     6    3    4 ar
     7    3   30 1
     8    4    5 ar
     9    4    7 1
    10    5    6 ar
    11    5   31 1
    12    6   32 1
    13    7    8 1
    14    7   33 1
    15    7   34 1
    16    8    9 2
    17    8   10 am
    18   10   11 1
    19   10   35 1
    20   11   16 ar
    21   11   12 ar
    22   12   13 ar
    23   12   36 1
    24   13   14 ar
    25   13   37 1
    26   14   19 1
    27   14   15 ar
    28   15   16 ar
    29   15   17 1
    30   16   38 1
    31   17   18 1
    32   17   39 1
    33   17   40 1
    34   18   23 1
    35   18   19 2
    36   19   20 1
    37   20   21 am
    38   20   43 1
    39   21   22 1
    40   21   27 2
    41   22   26 2
    42   22   23 1
    43   23   24 1
    44   24   25 2
    45   24   41 1
    46   25   26 1
    47   25   42 1
@<TRIPOS>MOLECULE
CHEMBL421990
   42    46     0     0     0
SMALL
USER_CHARGES

@<TRIPOS>ATOM
      1 C1          6.6513   -5.3349   -3.3242 C.ar      1 <0>        -0.1197
      2 C2          5.4181   -5.4541   -2.7110 C.ar      1 <0>        -0.1193
      3 C3          4.9538   -4.4434   -1.8901 C.ar      1 <0>        -0.1038
      4 C4          5.7228   -3.3137   -1.6822 C.ar      1 <0>        -0.0690
      5 C5          6.9563   -3.1949   -2.2947 C.ar      1 <0>        -0.1046
      6 C6          7.4200   -4.2049   -3.1167 C.ar      1 <0>        -0.1198
      7 C7          5.2162   -2.2114   -0.7881 C.3       1 <0>        -0.1002
      8 C8          5.6623   -2.4685    0.6282 C.2       1 <0>         0.5101
      9 O1          6.3263   -3.4501    0.8862 O.2       1 <0>        -0.5068
     10 N1          5.3234   -1.6075    1.6082 N.am      1 <0>        -0.6711
     11 C9          5.6539   -1.8946    2.9365 C.ar      1 <0>         0.1373
     12 C10         4.7914   -1.5275    3.9628 C.ar      1 <0>        -0.1466
     13 C11         5.1130   -1.8079    5.2730 C.ar      1 <0>        -0.0613
     14 C12         6.3092   -2.4636    5.5733 C.ar      1 <0>        -0.0364
     15 C13         7.1682   -2.8288    4.5395 C.ar      1 <0>        -0.0679
     16 C14         6.8428   -2.5526    3.2310 C.ar      1 <0>        -0.1014
     17 C15         8.3558   -3.5083    5.1749 C.3       1 <0>         0.0026
     18 C16         8.0907   -3.4945    6.6616 C.2       1 <0>        -0.1570
     19 C17         6.8960   -2.8828    6.8719 C.2       1 <0>         0.1994
     20 N2          6.4187   -2.7370    8.1272 N.2       1 <0>        -0.6035
     21 C18         7.0836   -3.1752    9.1703 C.2       1 <0>         0.4917
     22 C19         8.3327   -3.8182    8.9916 C.2       1 <0>         0.1408
     23 N3          8.8199   -3.9676    7.7178 N.pl3     1 <0>        -0.3011
     24 C20        10.0171   -4.6070    7.8193 C.2       1 <0>        -0.1064
     25 C21        10.2375   -4.8341    9.1364 C.2       1 <0>        -0.0142
     26 N4          9.2066   -4.3490    9.8293 N.2       1 <0>        -0.4593
     27 O2          6.5760   -3.0122   10.4166 O.3       1 <0>        -0.6490
     28 H1          7.0160   -6.1265   -3.9620 H         1 <0>         0.1204
     29 H2          4.8173   -6.3368   -2.8734 H         1 <0>         0.1216
     30 H3          3.9901   -4.5363   -1.4115 H         1 <0>         0.1200
     31 H4          7.5569   -2.3121   -2.1325 H         1 <0>         0.1199
     32 H5          8.3836   -4.1119   -3.5956 H         1 <0>         0.1215
     33 H6          5.6160   -1.2558   -1.1272 H         1 <0>         0.1056
     34 H7          4.1272   -2.1839   -0.8267 H         1 <0>         0.1061
     35 H8          4.8503   -0.7887    1.3923 H         1 <0>         0.4100
     36 H9          3.8660   -1.0205    3.7326 H         1 <0>         0.1271
     37 H10         4.4405   -1.5204    6.0676 H         1 <0>         0.1351
     38 H11         7.5119   -2.8429    2.4344 H         1 <0>         0.1386
     39 H12         8.4377   -4.5347    4.8171 H         1 <0>         0.0870
     40 H13         9.2690   -2.9571    4.9506 H         1 <0>         0.0861
     41 H14        10.6687   -4.8819    7.0031 H         1 <0>         0.1681
     42 H15        11.1034   -5.3254    9.5551 H         1 <0>         0.1692
@<TRIPOS>BOND
     1    1    6 ar
     2    1    2 ar
     3    1   28 1
     4    2    3 ar
     5    2   29 1
     6    3    4 ar
     7    3   30 1
     8    4    5 ar
     9    4    7 1
    10    5    6 ar
    11    5   31 1
    12    6   32 1
    13    7    8 1
    14    7   33 1
    15    7   34 1
    16    8    9 2
    17    8   10 am
    18   10   11 1
    19   10   35 1
    20   11   16 ar
    21   11   12 ar
    22   12   13 ar
    23   12   36 1
    24   13   14 ar
    25   13   37 1
    26   14   19 1
    27   14   15 ar
    28   15   16 ar
    29   15   17 1
    30   16   38 1
    31   17   18 1
    32   17   39 1
    33   17   40 1
    34   18   23 1
    35   18   19 2
    36   19   20 1
    37   20   21 2
    38   21   22 1
    39   21   27 1
    40   22   26 2
    41   22   23 1
    42   23   24 1
    43   24   25 2
    44   24   41 1
    45   25   26 1
    46   25   42 1
@<TRIPOS>MOLECULE
CHEMBL155075
   40    44     0     0     0
SMALL
USER_CHARGES

@<TRIPOS>ATOM
      1 C1         -0.0936    1.2544   -0.5549 C.ar      1 <0>        -0.0872
      2 C2          1.0049    1.8275   -1.1707 C.ar      1 <0>        -0.1259
      3 C3          2.2117    1.1596   -1.1962 C.ar      1 <0>        -0.0550
      4 C4          2.3231   -0.0972   -0.5988 C.ar      1 <0>        -0.1420
      5 C5          1.2109   -0.6696    0.0209 C.ar      1 <0>        -0.0853
      6 C6          0.0099    0.0091    0.0392 C.ar      1 <0>        -0.1262
      7 C7          3.6128   -0.8188   -0.6226 C.2       1 <0>         0.5634
      8 O1          4.5796   -0.3180   -1.1633 O.2       1 <0>        -0.5105
      9 N1          3.7170   -2.0320   -0.0449 N.am      1 <0>        -0.6700
     10 C8          4.9073   -2.7564   -0.1508 C.ar      1 <0>         0.1694
     11 C9          6.1286   -2.0916   -0.1476 C.ar      1 <0>        -0.1152
     12 C10         7.3052   -2.8004   -0.2517 C.ar      1 <0>        -0.0621
     13 C11         7.2729   -4.1941   -0.3607 C.ar      1 <0>        -0.0797
     14 C12         6.0439   -4.8529   -0.3627 C.ar      1 <0>        -0.0525
     15 C13         4.8709   -4.1433   -0.2538 C.ar      1 <0>        -0.1198
     16 C14         6.3444   -6.3250   -0.4922 C.3       1 <0>        -0.0185
     17 C15         7.8521   -6.4295   -0.5625 C.2       1 <0>        -0.0073
     18 C16         8.3632   -5.1902   -0.4848 C.2       1 <0>         0.1582
     19 N2          9.7432   -4.9875   -0.5245 N.am      1 <0>        -0.6291
     20 C17        10.5886   -6.0304   -0.6418 C.2       1 <0>         0.6005
     21 C18        10.0298   -7.3868   -0.7269 C.2       1 <0>         0.1329
     22 N3          8.6693   -7.5376   -0.6844 N.pl3     1 <0>        -0.3471
     23 C19         8.4134   -8.8684   -0.7798 C.2       1 <0>        -0.0284
     24 C20         9.6111   -9.4984   -0.8792 C.2       1 <0>        -0.0046
     25 N4         10.5750   -8.5802   -0.8436 N.2       1 <0>        -0.4098
     26 O2         11.7926   -5.8520   -0.6771 O.2       1 <0>        -0.4840
     27 H1         -1.0349    1.7835   -0.5339 H         1 <0>         0.1307
     28 H2          0.9173    2.7997   -1.6329 H         1 <0>         0.1335
     29 H3          3.0683    1.6078   -1.6775 H         1 <0>         0.1385
     30 H4          1.2903   -1.6417    0.4846 H         1 <0>         0.1260
     31 H5         -0.8513   -0.4326    0.5182 H         1 <0>         0.1322
     32 H6          2.9658   -2.4023    0.4444 H         1 <0>         0.4139
     33 H7          6.1549   -1.0152   -0.0635 H         1 <0>         0.1500
     34 H8          8.2516   -2.2802   -0.2496 H         1 <0>         0.1331
     35 H9          3.9233   -4.6613   -0.2519 H         1 <0>         0.1382
     36 H10         5.9698   -6.8638    0.3781 H         1 <0>         0.1157
     37 H11         5.8966   -6.7219   -1.4032 H         1 <0>         0.1154
     38 H12         7.4402   -9.3366   -0.7768 H         1 <0>         0.1919
     39 H13         9.7579  -10.5645   -0.9696 H         1 <0>         0.1915
     40 H14        10.0977   -4.0865   -0.4673 H         1 <0>         0.4253
@<TRIPOS>BOND
     1    1    6 ar
     2    1    2 ar
     3    1   27 1
     4    2    3 ar
     5    2   28 1
     6    3    4 ar
     7    3   29 1
     8    4    5 ar
     9    4    7 1
    10    5    6 ar
    11    5   30 1
    12    6   31 1
    13    7    8 2
    14    7    9 am
    15    9   10 1
    16    9   32 1
    17   10   15 ar
    18   10   11 ar
    19   11   12 ar
    20   11   33 1
    21   12   13 ar
    22   12   34 1
    23   13   18 1
    24   13   14 ar
    25   14   15 ar
    26   14   16 1
    27   15   35 1
    28   16   17 1
    29   16   36 1
    30   16   37 1
    31   17   22 1
    32   17   18 2
    33   18   19 1
    34   19   20 am
    35   19   40 1
    36   20   21 1
    37   20   26 2
    38   21   25 2
    39   21   22 1
    40   22   23 1
    41   23   24 2
    42   23   38 1
    43   24   25 1
    44   24   39 1
@<TRIPOS>MOLECULE
CHEMBL155075
   39    43     0     0     0
SMALL
USER_CHARGES

@<TRIPOS>ATOM
      1 C1         -0.0936    1.2544   -0.5550 C.ar      1 <0>        -0.0941
      2 C2          1.0050    1.8275   -1.1707 C.ar      1 <0>        -0.1274
      3 C3          2.2118    1.1596   -1.1961 C.ar      1 <0>        -0.0576
      4 C4          2.3231   -0.0971   -0.5988 C.ar      1 <0>        -0.1330
      5 C5          1.2108   -0.6696    0.0207 C.ar      1 <0>        -0.0866
      6 C6          0.0099    0.0090    0.0389 C.ar      1 <0>        -0.1276
      7 C7          3.6129   -0.8187   -0.6225 C.2       1 <0>         0.5559
      8 O1          4.5797   -0.3178   -1.1631 O.2       1 <0>        -0.5117
      9 N1          3.7170   -2.0320   -0.0449 N.am      1 <0>        -0.6644
     10 C8          4.9075   -2.7565   -0.1509 C.ar      1 <0>         0.1379
     11 C9          6.1288   -2.0923   -0.1478 C.ar      1 <0>        -0.1212
     12 C10         7.3049   -2.8025   -0.2520 C.ar      1 <0>        -0.0604
     13 C11         7.2727   -4.1946   -0.3613 C.ar      1 <0>        -0.0351
     14 C12         6.0453   -4.8533   -0.3637 C.ar      1 <0>        -0.0685
     15 C13         4.8716   -4.1429   -0.2538 C.ar      1 <0>        -0.1250
     16 C14         6.3384   -6.3274   -0.4933 C.3       1 <0>         0.0051
     17 C15         7.8425   -6.4430   -0.5640 C.2       1 <0>        -0.1607
     18 C16         8.3664   -5.1920   -0.4856 C.2       1 <0>         0.2013
     19 N2          9.7047   -5.0118   -0.5249 N.2       1 <0>        -0.6027
     20 C17        10.5313   -6.0248   -0.6386 C.2       1 <0>         0.4918
     21 C18        10.0232   -7.3440   -0.7231 C.2       1 <0>         0.1411
     22 N3          8.6644   -7.5298   -0.6838 N.pl3     1 <0>        -0.3007
     23 C19         8.4404   -8.8688   -0.7814 C.2       1 <0>        -0.1073
     24 C20         9.6505   -9.4696   -0.8783 C.2       1 <0>        -0.0142
     25 N4         10.5956   -8.5296   -0.8410 N.2       1 <0>        -0.4592
     26 O2         11.8689   -5.8087   -0.6756 O.3       1 <0>        -0.6474
     27 H1         -1.0349    1.7834   -0.5341 H         1 <0>         0.1274
     28 H2          0.9174    2.7997   -1.6327 H         1 <0>         0.1308
     29 H3          3.0684    1.6079   -1.6773 H         1 <0>         0.1383
     30 H4          1.2902   -1.6418    0.4843 H         1 <0>         0.1267
     31 H5         -0.8514   -0.4328    0.5179 H         1 <0>         0.1296
     32 H6          2.9658   -2.4023    0.4443 H         1 <0>         0.4080
     33 H7          6.1557   -1.0160   -0.0637 H         1 <0>         0.1405
     34 H8          8.2516   -2.2827   -0.2496 H         1 <0>         0.1351
     35 H9          3.9240   -4.6610   -0.2515 H         1 <0>         0.1260
     36 H10         5.9604   -6.8639    0.3770 H         1 <0>         0.0862
     37 H11         5.8877   -6.7219   -1.4040 H         1 <0>         0.0860
     38 H12         7.4785   -9.3599   -0.7812 H         1 <0>         0.1680
     39 H13         9.8213  -10.5321   -0.9698 H         1 <0>         0.1690
@<TRIPOS>BOND
     1    1    6 ar
     2    1    2 ar
     3    1   27 1
     4    2    3 ar
     5    2   28 1
     6    3    4 ar
     7    3   29 1
     8    4    5 ar
     9    4    7 1
    10    5    6 ar
    11    5   30 1
    12    6   31 1
    13    7    8 2
    14    7    9 am
    15    9   10 1
    16    9   32 1
    17   10   15 ar
    18   10   11 ar
    19   11   12 ar
    20   11   33 1
    21   12   13 ar
    22   12   34 1
    23   13   18 1
    24   13   14 ar
    25   14   15 ar
    26   14   16 1
    27   15   35 1
    28   16   17 1
    29   16   36 1
    30   16   37 1
    31   17   22 1
    32   17   18 2
    33   18   19 1
    34   19   20 2
    35   20   21 1
    36   20   26 1
    37   21   25 2
    38   21   22 1
    39   22   23 1
    40   23   24 2
    41   23   38 1
    42   24   25 1
    43   24   39 1
@<TRIPOS>MOLECULE
CHEMBL14712
   39    43     0     0     0
SMALL
USER_CHARGES

@<TRIPOS>ATOM
      1 C1         -0.0178    1.4648    0.0101 C.3       1 <0>        -0.0551
      2 N1          0.0021   -0.0041    0.0020 N.4       1 <0>        -0.3853
      3 C2         -1.3839   -0.5219    0.0384 C.3       1 <0>        -0.0141
      4 C3         -1.3073   -1.7957    0.9172 C.3       1 <0>        -0.1527
      5 C4         -0.2646   -1.3777    1.9888 C.3       1 <0>        -0.1224
      6 C5          0.7117   -0.4962    1.1905 C.3       1 <0>         0.1839
      7 C6          1.2095    0.6418    2.0366 C.ar      1 <0>        -0.1145
      8 C7          0.5836    1.6887    2.6754 C.ar      1 <0>        -0.0806
      9 C8          1.3292    2.6021    3.4008 C.ar      1 <0>        -0.0810
     10 C9          2.7036    2.4659    3.4863 C.ar      1 <0>        -0.0820
     11 C10         3.3403    1.4210    2.8500 C.ar      1 <0>        -0.0660
     12 C11         2.5947    0.4957    2.1153 C.ar      1 <0>        -0.0574
     13 C12         3.0066   -0.7008    1.3425 C.2       1 <0>         0.2261
     14 C13         1.9307   -1.2923    0.7961 C.2       1 <0>        -0.0701
     15 N2          2.0538   -2.4316    0.0234 N.pl3     1 <0>        -0.3531
     16 C14         1.1491   -3.2058   -0.6311 C.2       1 <0>        -0.0621
     17 C15         1.8413   -4.2062   -1.2317 C.2       1 <0>         0.0232
     18 N3          3.1344   -4.0504   -0.9542 N.2       1 <0>        -0.3942
     19 C16         3.2875   -2.9835   -0.1972 C.2       1 <0>         0.1514
     20 C17         4.4634   -2.3369    0.4021 C.2       1 <0>         0.5982
     21 N4          4.2835   -1.2270    1.1448 N.am      1 <0>        -0.6254
     22 O1          5.5784   -2.7954    0.2314 O.2       1 <0>        -0.4481
     23 H1          1.0047    1.8421    0.0024 H         1 <0>         0.1231
     24 H2         -0.5450    1.8259   -0.8730 H         1 <0>         0.1296
     25 H3         -0.5280    1.8163    0.9069 H         1 <0>         0.1326
     26 H4         -2.0513    0.2116    0.4906 H         1 <0>         0.1423
     27 H5         -1.7212   -0.7742   -0.9670 H         1 <0>         0.1436
     28 H6         -2.2723   -2.0122    1.3753 H         1 <0>         0.1306
     29 H7         -0.9518   -2.6482    0.3385 H         1 <0>         0.1014
     30 H8         -0.7386   -0.8047    2.7857 H         1 <0>         0.1162
     31 H9          0.2463   -2.2521    2.3919 H         1 <0>         0.1173
     32 H10        -0.4889    1.7974    2.6103 H         1 <0>         0.1442
     33 H11         0.8371    3.4231    3.9009 H         1 <0>         0.1514
     34 H12         3.2804    3.1814    4.0535 H         1 <0>         0.1508
     35 H13         4.4132    1.3185    2.9193 H         1 <0>         0.1439
     36 H14         0.0804   -3.0538   -0.6661 H         1 <0>         0.1930
     37 H15         1.4155   -4.9956   -1.8334 H         1 <0>         0.1993
     38 H16         5.0503   -0.7885    1.5456 H         1 <0>         0.4344
     39 H17         0.4652   -0.3341   -0.8315 H         1 <0>         0.4278
@<TRIPOS>BOND
     1    1    2 1
     2    1   23 1
     3    1   24 1
     4    1   25 1
     5    2    6 1
     6    2    3 1
     7    2   39 1
     8    3    4 1
     9    3   26 1
    10    3   27 1
    11    4    5 1
    12    4   28 1
    13    4   29 1
    14    5    6 1
    15    5   30 1
    16    5   31 1
    17    6   14 1
    18    6    7 1
    19    7   12 ar
    20    7    8 ar
    21    8    9 ar
    22    8   32 1
    23    9   10 ar
    24    9   33 1
    25   10   11 ar
    26   10   34 1
    27   11   12 ar
    28   11   35 1
    29   12   13 1
    30   13   21 1
    31   13   14 2
    32   14   15 1
    33   15   19 1
    34   15   16 1
    35   16   17 2
    36   16   36 1
    37   17   18 1
    38   17   37 1
    39   18   19 2
    40   19   20 1
    41   20   21 am
    42   20   22 2
    43   21   38 1
@<TRIPOS>MOLECULE
CHEMBL14712
   38    42     0     0     0
SMALL
USER_CHARGES

@<TRIPOS>ATOM
      1 C1         -0.0178    1.4648    0.0101 C.3       1 <0>         0.0126
      2 N1          0.0021   -0.0041    0.0020 N.3       1 <0>        -0.5112
      3 C2         -1.3723   -0.5531   -0.0023 C.3       1 <0>         0.0360
      4 C3         -1.2793   -1.8589    0.8265 C.3       1 <0>        -0.1401
      5 C4         -0.2609   -1.4613    1.9288 C.3       1 <0>        -0.1245
      6 C5          0.7062   -0.5275    1.1803 C.3       1 <0>         0.1985
      7 C6          1.1668    0.5864    2.0779 C.ar      1 <0>        -0.0848
      8 C7          0.5089    1.5931    2.7484 C.ar      1 <0>        -0.0859
      9 C8          1.2239    2.4930    3.5201 C.ar      1 <0>        -0.1003
     10 C9          2.5997    2.3836    3.6201 C.ar      1 <0>        -0.1062
     11 C10         3.2683    1.3790    2.9524 C.ar      1 <0>        -0.0866
     12 C11         2.5538    0.4676    2.1709 C.ar      1 <0>        -0.0514
     13 C12         3.0028   -0.6879    1.3575 C.2       1 <0>         0.1430
     14 C13         1.9480   -1.2805    0.7725 C.2       1 <0>         0.0409
     15 N2          2.1071   -2.3851   -0.0427 N.pl3     1 <0>        -0.3366
     16 C14         1.2290   -3.1522   -0.7404 C.2       1 <0>        -0.0221
     17 C15         1.9516   -4.1126   -1.3700 C.2       1 <0>        -0.0088
     18 N3          3.2371   -3.9397   -1.0677 N.2       1 <0>        -0.4081
     19 C16         3.3558   -2.9008   -0.2670 C.2       1 <0>         0.1297
     20 C17         4.5087   -2.2530    0.3745 C.2       1 <0>         0.6012
     21 N4          4.2938   -1.1778    1.1578 N.am      1 <0>        -0.6280
     22 O1          5.6358   -2.6799    0.2020 O.2       1 <0>        -0.4851
     23 H1          1.0047    1.8421    0.0024 H         1 <0>         0.0705
     24 H2         -0.5450    1.8259   -0.8730 H         1 <0>         0.0738
     25 H3         -0.5280    1.8163    0.9069 H         1 <0>         0.0454
     26 H4         -2.0621    0.1471    0.4688 H         1 <0>         0.0575
     27 H5         -1.6901   -0.7724   -1.0216 H         1 <0>         0.0913
     28 H6         -2.2454   -2.1145    1.2616 H         1 <0>         0.0883
     29 H7         -0.8968   -2.6797    0.2198 H         1 <0>         0.0819
     30 H8         -0.7585   -0.9310    2.7408 H         1 <0>         0.0872
     31 H9          0.2638   -2.3397    2.3045 H         1 <0>         0.0825
     32 H10        -0.5648    1.6809    2.6720 H         1 <0>         0.1312
     33 H11         0.7067    3.2824    4.0451 H         1 <0>         0.1357
     34 H12         3.1525    3.0883    4.2236 H         1 <0>         0.1355
     35 H13         4.3421    1.2968    3.0338 H         1 <0>         0.1298
     36 H14         0.1578   -3.0224   -0.7849 H         1 <0>         0.1923
     37 H15         1.5519   -4.8865   -2.0085 H         1 <0>         0.1905
     38 H16         5.0450   -0.7390    1.5867 H         1 <0>         0.4242
@<TRIPOS>BOND
     1    1    2 1
     2    1   23 1
     3    1   24 1
     4    1   25 1
     5    2    6 1
     6    2    3 1
     7    3    4 1
     8    3   26 1
     9    3   27 1
    10    4    5 1
    11    4   28 1
    12    4   29 1
    13    5    6 1
    14    5   30 1
    15    5   31 1
    16    6   14 1
    17    6    7 1
    18    7   12 ar
    19    7    8 ar
    20    8    9 ar
    21    8   32 1
    22    9   10 ar
    23    9   33 1
    24   10   11 ar
    25   10   34 1
    26   11   12 ar
    27   11   35 1
    28   12   13 1
    29   13   21 1
    30   13   14 2
    31   14   15 1
    32   15   19 1
    33   15   16 1
    34   16   17 2
    35   16   36 1
    36   17   18 1
    37   17   37 1
    38   18   19 2
    39   19   20 1
    40   20   21 am
    41   20   22 2
    42   21   38 1
@<TRIPOS>MOLECULE
CHEMBL14712
   39    43     0     0     0
SMALL
USER_CHARGES

@<TRIPOS>ATOM
      1 C1         -0.0178    1.4648    0.0101 C.3       1 <0>        -0.0661
      2 N1          0.0021   -0.0041    0.0020 N.4       1 <0>        -0.3815
      3 C2         -1.3750   -0.5226    0.1601 C.3       1 <0>        -0.0144
      4 C3         -1.2213   -1.7965    1.0287 C.3       1 <0>        -0.1403
      5 C4         -0.0888   -1.3777    2.0046 C.3       1 <0>        -0.1244
      6 C5          0.8128   -0.4945    1.1247 C.3       1 <0>         0.1833
      7 C6          2.0011   -1.2744    0.6356 C.ar      1 <0>        -0.1244
      8 C7          2.1355   -2.4066   -0.1362 C.ar      1 <0>        -0.0736
      9 C8          3.3958   -2.9008   -0.4260 C.ar      1 <0>        -0.0816
     10 C9          4.5223   -2.2596    0.0585 C.ar      1 <0>        -0.0813
     11 C10         4.3985   -1.1247    0.8322 C.ar      1 <0>        -0.0668
     12 C11         3.1301   -0.6195    1.1283 C.ar      1 <0>        -0.0562
     13 C12         2.7065    0.5613    1.9188 C.2       1 <0>         0.2217
     14 C13         1.3658    0.6546    1.9301 C.2       1 <0>        -0.0582
     15 N2          0.7242    1.6775    2.6026 N.pl3     1 <0>        -0.3561
     16 C14        -0.5866    1.9964    2.7651 C.2       1 <0>        -0.0624
     17 C15        -0.6325    3.1164    3.5295 C.2       1 <0>         0.0276
     18 N3          0.6148    3.4752    3.8276 N.2       1 <0>        -0.3942
     19 C16         1.4525    2.6204    3.2778 C.2       1 <0>         0.1549
     20 C17         2.9185    2.5158    3.2672 C.2       1 <0>         0.5972
     21 N4          3.4898    1.4995    2.5916 N.am      1 <0>        -0.6251
     22 O1          3.6034    3.3329    3.8553 O.2       1 <0>        -0.4477
     23 H1          0.9918    1.8409    0.1750 H         1 <0>         0.1195
     24 H2         -0.3891    1.8284   -0.9481 H         1 <0>         0.1330
     25 H3         -0.6711    1.8149    0.8094 H         1 <0>         0.1323
     26 H4         -2.0004    0.2107    0.6693 H         1 <0>         0.1341
     27 H5         -1.7993   -0.7748   -0.8117 H         1 <0>         0.1460
     28 H6         -2.1423   -2.0134    1.5697 H         1 <0>         0.1266
     29 H7         -0.9174   -2.6488    0.4210 H         1 <0>         0.1052
     30 H8         -0.4917   -0.8059    2.8405 H         1 <0>         0.1050
     31 H9          0.4565   -2.2518    2.3607 H         1 <0>         0.1236
     32 H10         1.2580   -2.9092   -0.5152 H         1 <0>         0.1426
     33 H11         3.5000   -3.7892   -1.0313 H         1 <0>         0.1510
     34 H12         5.5030   -2.6500   -0.1700 H         1 <0>         0.1506
     35 H13         5.2803   -0.6275    1.2084 H         1 <0>         0.1437
     36 H14        -1.4325    1.4593    2.3620 H         1 <0>         0.1908
     37 H15        -1.5292    3.6299    3.8434 H         1 <0>         0.2000
     38 H16         4.4562    1.4181    2.5745 H         1 <0>         0.4347
     39 H17         0.3908   -0.3349   -0.8683 H         1 <0>         0.4310
@<TRIPOS>BOND
     1    1    2 1
     2    1   23 1
     3    1   24 1
     4    1   25 1
     5    2    6 1
     6    2    3 1
     7    2   39 1
     8    3    4 1
     9    3   26 1
    10    3   27 1
    11    4    5 1
    12    4   28 1
    13    4   29 1
    14    5    6 1
    15    5   30 1
    16    5   31 1
    17    6   14 1
    18    6    7 1
    19    7   12 ar
    20    7    8 ar
    21    8    9 ar
    22    8   32 1
    23    9   10 ar
    24    9   33 1
    25   10   11 ar
    26   10   34 1
    27   11   12 ar
    28   11   35 1
    29   12   13 1
    30   13   21 1
    31   13   14 2
    32   14   15 1
    33   15   19 1
    34   15   16 1
    35   16   17 2
    36   16   36 1
    37   17   18 1
    38   17   37 1
    39   18   19 2
    40   19   20 1
    41   20   21 am
    42   20   22 2
    43   21   38 1
@<TRIPOS>MOLECULE
CHEMBL14712
   38    42     0     0     0
SMALL
USER_CHARGES

@<TRIPOS>ATOM
      1 C1         -0.0178    1.4648    0.0101 C.3       1 <0>         0.0030
      2 N1          0.0021   -0.0041    0.0020 N.3       1 <0>        -0.5047
      3 C2         -1.3671   -0.5537    0.1187 C.3       1 <0>         0.0351
      4 C3         -1.2012   -1.8595    0.9362 C.3       1 <0>        -0.1281
      5 C4         -0.0903   -1.4610    1.9447 C.3       1 <0>        -0.1268
      6 C5          0.8065   -0.5258    1.1151 C.3       1 <0>         0.2016
      7 C6          2.0158   -1.2629    0.6115 C.ar      1 <0>        -0.0402
      8 C7          2.1821   -2.3595   -0.2044 C.ar      1 <0>        -0.0760
      9 C8          3.4552   -2.8182   -0.4961 C.ar      1 <0>        -0.0970
     10 C9          4.5627   -2.1772    0.0306 C.ar      1 <0>        -0.1122
     11 C10         4.4071   -1.0778    0.8486 C.ar      1 <0>        -0.0840
     12 C11         3.1254   -0.6085    1.1470 C.ar      1 <0>        -0.0690
     13 C12         2.6689    0.5305    1.9792 C.2       1 <0>         0.1664
     14 C13         1.3267    0.5988    1.9750 C.2       1 <0>        -0.0142
     15 N2          0.6568    1.5810    2.6799 N.pl3     1 <0>        -0.3439
     16 C14        -0.6618    1.8690    2.8364 C.2       1 <0>        -0.0328
     17 C15        -0.7392    2.9552    3.6456 C.2       1 <0>         0.0006
     18 N3          0.4970    3.3241    3.9762 N.2       1 <0>        -0.4071
     19 C16         1.3580    2.5083    3.4038 C.2       1 <0>         0.1367
     20 C17         2.8257    2.4310    3.4100 C.2       1 <0>         0.6003
     21 N4          3.4252    1.4541    2.7014 N.am      1 <0>        -0.6278
     22 O1          3.4870    3.2353    4.0411 O.2       1 <0>        -0.4812
     23 H1          1.0001    1.8414    0.1106 H         1 <0>         0.0654
     24 H2         -0.4490    1.8274   -0.9230 H         1 <0>         0.0780
     25 H3         -0.6194    1.8154    0.8487 H         1 <0>         0.0467
     26 H4         -2.0130    0.1463    0.6487 H         1 <0>         0.0512
     27 H5         -1.7732   -0.7732   -0.8687 H         1 <0>         0.0931
     28 H6         -2.1253   -2.1155    1.4545 H         1 <0>         0.0847
     29 H7         -0.8731   -2.6803    0.2983 H         1 <0>         0.0835
     30 H8         -0.5152   -0.9318    2.7976 H         1 <0>         0.0758
     31 H9          0.4664   -2.3390    2.2724 H         1 <0>         0.0889
     32 H10         1.3194   -2.8619   -0.6164 H         1 <0>         0.1328
     33 H11         3.5844   -3.6786   -1.1360 H         1 <0>         0.1350
     34 H12         5.5537   -2.5398   -0.1996 H         1 <0>         0.1343
     35 H13         5.2742   -0.5806    1.2576 H         1 <0>         0.1279
     36 H14        -1.4918    1.3338    2.3993 H         1 <0>         0.1858
     37 H15        -1.6496    3.4393    3.9670 H         1 <0>         0.1921
     38 H16         4.3931    1.3912    2.6949 H         1 <0>         0.4258
@<TRIPOS>BOND
     1    1    2 1
     2    1   23 1
     3    1   24 1
     4    1   25 1
     5    2    6 1
     6    2    3 1
     7    3    4 1
     8    3   26 1
     9    3   27 1
    10    4    5 1
    11    4   28 1
    12    4   29 1
    13    5    6 1
    14    5   30 1
    15    5   31 1
    16    6   14 1
    17    6    7 1
    18    7   12 ar
    19    7    8 ar
    20    8    9 ar
    21    8   32 1
    22    9   10 ar
    23    9   33 1
    24   10   11 ar
    25   10   34 1
    26   11   12 ar
    27   11   35 1
    28   12   13 1
    29   13   21 1
    30   13   14 2
    31   14   15 1
    32   15   19 1
    33   15   16 1
    34   16   17 2
    35   16   36 1
    36   17   18 1
    37   17   37 1
    38   18   19 2
    39   19   20 1
    40   20   21 am
    41   20   22 2
    42   21   38 1
@<TRIPOS>MOLECULE
CHEMBL79348
   50    53     0     0     0
SMALL
USER_CHARGES

@<TRIPOS>ATOM
      1 C1          1.2903   -0.7059    0.5504 C.ar      1 <0>        -0.0681
      2 C2          2.4439    0.0351    0.5603 C.ar      1 <0>        -0.1337
      3 C3          2.5185    1.2198   -0.1666 C.ar      1 <0>         0.1446
      4 C4          1.4231    1.6574   -0.9057 C.ar      1 <0>        -0.1631
      5 C5          0.2660    0.9221   -0.9207 C.ar      1 <0>        -0.0687
      6 C6          0.1871   -0.2697   -0.1917 C.ar      1 <0>        -0.1462
      7 C7         -1.0532   -1.0625   -0.2054 C.2       1 <0>         0.5200
      8 O1         -1.1204   -2.1042    0.4325 O.co2     1 <0>        -0.6888
      9 O2         -2.0168   -0.6796   -0.8548 O.co2     1 <0>        -0.6909
     10 N1          3.6924    1.9699   -0.1539 N.am      1 <0>        -0.6809
     11 C8          4.8869    1.3507   -0.0740 C.2       1 <0>         0.6994
     12 O3          4.9460    0.1369   -0.1097 O.2       1 <0>        -0.5690
     13 N2          6.0158    2.0771    0.0454 N.am      1 <0>        -0.7412
     14 C9          7.3142    1.4041    0.1323 C.3       1 <0>         0.2117
     15 C10         8.4066    2.4344    0.2588 C.2       1 <0>        -0.1681
     16 C11         9.1021    3.0468   -0.8030 C.2       1 <0>        -0.1627
     17 C12         9.9924    3.9038   -0.2628 C.2       1 <0>        -0.0068
     18 N3          9.8723    3.8432    1.0961 N.pl3     1 <0>        -0.4192
     19 C13         8.8937    2.9436    1.4087 C.2       1 <0>         0.0089
     20 C14        10.6251    4.5858    2.0174 C.ar      1 <0>         0.1949
     21 C15        10.6225    5.9701    1.9568 C.ar      1 <0>        -0.1186
     22 C16        11.3676    6.7066    2.8694 C.ar      1 <0>         0.1704
     23 C17        12.1179    6.0469    3.8455 C.ar      1 <0>         0.1205
     24 C18        12.1148    4.6572    3.8984 C.ar      1 <0>        -0.0541
     25 C19        11.3683    3.9319    2.9937 C.ar      1 <0>        -0.1730
     26 C20        11.3630    2.4264    3.0594 C.3       1 <0>         0.5141
     27 F1         12.2935    1.9979    4.0122 F         1 <0>        -0.1725
     28 F2         10.0872    1.9798    3.4199 F         1 <0>        -0.1666
     29 F3         11.7035    1.9037    1.8072 F         1 <0>        -0.1624
     30 N4         12.8709    6.7693    4.7679 N.am      1 <0>        -0.6316
     31 C21        12.8804    8.1170    4.7255 C.2       1 <0>         0.5112
     32 C22        12.0789    8.8210    3.6835 C.2       1 <0>         0.5120
     33 N5         11.3599    8.0970    2.8020 N.am      1 <0>        -0.6333
     34 O4         12.0737   10.0344    3.6294 O.2       1 <0>        -0.4515
     35 O5         13.5350    8.7514    5.5284 O.2       1 <0>        -0.4549
     36 H1          1.2347   -1.6273    1.1111 H         1 <0>         0.1283
     37 H2          3.2956   -0.3007    1.1331 H         1 <0>         0.1266
     38 H3          1.4847    2.5776   -1.4678 H         1 <0>         0.1150
     39 H4         -0.5835    1.2625   -1.4941 H         1 <0>         0.1289
     40 H5          3.6502    2.9377   -0.2026 H         1 <0>         0.4007
     41 H6          5.9687    3.0455    0.0739 H         1 <0>         0.3953
     42 H7          7.3274    0.7514    1.0052 H         1 <0>         0.0722
     43 H8          7.4768    0.8107   -0.7675 H         1 <0>         0.0757
     44 H9          8.9504    2.8630   -1.8564 H         1 <0>         0.1459
     45 H10        10.6816    4.5296   -0.8104 H         1 <0>         0.1680
     46 H11         8.5679    2.6830    2.4049 H         1 <0>         0.1782
     47 H12        10.0417    6.4765    1.2001 H         1 <0>         0.1612
     48 H13        12.6945    4.1452    4.6521 H         1 <0>         0.1649
     49 H14        10.8361    8.5458    2.1200 H         1 <0>         0.4287
     50 H15        13.3890    6.3023    5.4419 H         1 <0>         0.4283
@<TRIPOS>BOND
     1    1    6 ar
     2    1    2 ar
     3    1   36 1
     4    2    3 ar
     5    2   37 1
     6    3    4 ar
     7    3   10 1
     8    4    5 ar
     9    4   38 1
    10    5    6 ar
    11    5   39 1
    12    6    7 1
    13    7    8 2
    14    7    9 1
    15   10   11 am
    16   10   40 1
    17   11   12 2
    18   11   13 am
    19   13   14 1
    20   13   41 1
    21   14   15 1
    22   14   42 1
    23   14   43 1
    24   15   19 2
    25   15   16 1
    26   16   17 2
    27   16   44 1
    28   17   18 1
    29   17   45 1
    30   18   19 1
    31   18   20 1
    32   19   46 1
    33   20   25 ar
    34   20   21 ar
    35   21   22 ar
    36   21   47 1
    37   22   33 1
    38   22   23 ar
    39   23   24 ar
    40   23   30 1
    41   24   25 ar
    42   24   48 1
    43   25   26 1
    44   26   27 1
    45   26   28 1
    46   26   29 1
    47   30   31 am
    48   30   50 1
    49   31   32 1
    50   31   35 2
    51   32   33 am
    52   32   34 2
    53   33   49 1
@<TRIPOS>MOLECULE
CHEMBL79348
   49    52     0     0     0
SMALL
USER_CHARGES

@<TRIPOS>ATOM
      1 C1          1.2884   -0.7005    0.5446 C.ar      1 <0>        -0.0675
      2 C2          2.4425    0.0397    0.5550 C.ar      1 <0>        -0.1345
      3 C3          2.5182    1.2245   -0.1716 C.ar      1 <0>         0.1507
      4 C4          1.4235    1.6630   -0.9111 C.ar      1 <0>        -0.1654
      5 C5          0.2658    0.9285   -0.9266 C.ar      1 <0>        -0.0689
      6 C6          0.1858   -0.2633   -0.1978 C.ar      1 <0>        -0.1508
      7 C7         -1.0551   -1.0552   -0.2121 C.2       1 <0>         0.5216
      8 O1         -1.1234   -2.0970    0.4257 O.co2     1 <0>        -0.6906
      9 O2         -2.0182   -0.6715   -0.8618 O.co2     1 <0>        -0.6935
     10 N1          3.6927    1.9737   -0.1585 N.am      1 <0>        -0.6834
     11 C8          4.8866    1.3536   -0.0772 C.2       1 <0>         0.6992
     12 O3          4.9449    0.1398   -0.1120 O.2       1 <0>        -0.5729
     13 N2          6.0160    2.0793    0.0428 N.am      1 <0>        -0.7382
     14 C9          7.3138    1.4053    0.1311 C.3       1 <0>         0.2167
     15 C10         8.4069    2.4349    0.2580 C.2       1 <0>        -0.1889
     16 C11         9.1038    3.0462   -0.8040 C.2       1 <0>        -0.1789
     17 C12         9.9942    3.9028   -0.2640 C.2       1 <0>        -0.0047
     18 N3          9.8731    3.8434    1.0953 N.pl3     1 <0>        -0.3938
     19 C13         8.8933    2.9443    1.4078 C.2       1 <0>         0.0142
     20 C14        10.6244    4.5846    2.0151 C.ar      1 <0>         0.1092
     21 C15        10.6203    5.9680    1.9522 C.ar      1 <0>        -0.1103
     22 C16        11.3662    6.7029    2.8653 C.ar      1 <0>         0.0798
     23 C17        12.1208    6.0358    3.8481 C.ar      1 <0>         0.1785
     24 C18        12.1101    4.6335    3.8930 C.ar      1 <0>        -0.0644
     25 C19        11.3685    3.9265    2.9934 C.ar      1 <0>        -0.1698
     26 C20        11.3581    2.4207    3.0531 C.3       1 <0>         0.5121
     27 F1         12.2871    1.9853    4.0041 F         1 <0>        -0.1763
     28 F2         10.0808    1.9770    3.4117 F         1 <0>        -0.1757
     29 F3         11.6969    1.9020    1.7987 F         1 <0>        -0.1722
     30 N4         12.8504    6.7321    4.7430 N.2       1 <0>        -0.6021
     31 C21        12.8761    8.0384    4.7210 C.2       1 <0>         0.4194
     32 C22        12.1010    8.7759    3.7095 C.2       1 <0>         0.4768
     33 N5         11.3675    8.0846    2.8100 N.am      1 <0>        -0.6301
     34 O4         12.1204    9.9930    3.6844 O.2       1 <0>        -0.5182
     35 O5         13.6172    8.7157    5.6313 O.3       1 <0>        -0.6201
     36 H1          1.2318   -1.6219    1.1051 H         1 <0>         0.1273
     37 H2          3.2938   -0.2968    1.1281 H         1 <0>         0.1278
     38 H3          1.4859    2.5831   -1.4731 H         1 <0>         0.1148
     39 H4         -0.5833    1.2695   -1.5003 H         1 <0>         0.1275
     40 H5          3.6512    2.9415   -0.2078 H         1 <0>         0.4012
     41 H6          5.9696    3.0478    0.0706 H         1 <0>         0.3961
     42 H7          7.3258    0.7532    1.0044 H         1 <0>         0.0690
     43 H8          7.4767    0.8113   -0.7682 H         1 <0>         0.0710
     44 H9          8.9523    2.8621   -1.8573 H         1 <0>         0.1371
     45 H10        10.6840    4.5279   -0.8116 H         1 <0>         0.1608
     46 H11         8.5664    2.6845    2.4038 H         1 <0>         0.1729
     47 H12        10.0394    6.4740    1.1954 H         1 <0>         0.1342
     48 H13        12.6867    4.1135    4.6437 H         1 <0>         0.1507
     49 H14        10.8498    8.5506    2.1350 H         1 <0>         0.4024
@<TRIPOS>BOND
     1    1    6 ar
     2    1    2 ar
     3    1   36 1
     4    2    3 ar
     5    2   37 1
     6    3    4 ar
     7    3   10 1
     8    4    5 ar
     9    4   38 1
    10    5    6 ar
    11    5   39 1
    12    6    7 1
    13    7    8 2
    14    7    9 1
    15   10   11 am
    16   10   40 1
    17   11   12 2
    18   11   13 am
    19   13   14 1
    20   13   41 1
    21   14   15 1
    22   14   42 1
    23   14   43 1
    24   15   19 2
    25   15   16 1
    26   16   17 2
    27   16   44 1
    28   17   18 1
    29   17   45 1
    30   18   19 1
    31   18   20 1
    32   19   46 1
    33   20   25 ar
    34   20   21 ar
    35   21   22 ar
    36   21   47 1
    37   22   33 1
    38   22   23 ar
    39   23   24 ar
    40   23   30 1
    41   24   25 ar
    42   24   48 1
    43   25   26 1
    44   26   27 1
    45   26   28 1
    46   26   29 1
    47   30   31 2
    48   31   32 1
    49   31   35 1
    50   32   33 am
    51   32   34 2
    52   33   49 1
@<TRIPOS>MOLECULE
CHEMBL113270
   28    30     0     0     0
SMALL
USER_CHARGES

@<TRIPOS>ATOM
      1 C1         -2.8710    1.4853    0.3279 C.3       1 <0>        -0.1491
      2 C2         -2.8502   -0.0445    0.3195 C.3       1 <0>        -0.1253
      3 C3         -1.4333   -0.5336    0.0129 C.3       1 <0>        -0.0339
      4 C4         -1.4129   -2.0405    0.0046 C.2       1 <0>         0.1622
      5 N1         -1.4989   -2.8106   -1.0527 N.2       1 <0>        -0.2864
      6 N2         -1.4495   -4.0491   -0.7036 N.2       1 <0>        -0.2432
      7 C5         -1.3285   -4.1291    0.6048 C.2       1 <0>         0.1326
      8 N3         -1.2971   -2.8410    1.0817 N.pl3     1 <0>        -0.3791
      9 C6         -1.1680   -2.6278    2.4436 C.ar      1 <0>         0.0032
     10 C7         -1.1370   -1.3368    2.9558 C.ar      1 <0>        -0.0702
     11 C8         -1.0081   -1.1350    4.3145 C.ar      1 <0>        -0.0867
     12 C9         -0.9084   -2.2180    5.1793 C.ar      1 <0>         0.0083
     13 C10        -0.9376   -3.5043    4.6906 C.ar      1 <0>        -0.1151
     14 C11        -1.0680   -3.7269    3.3136 C.ar      1 <0>         0.2257
     15 N4         -1.0966   -4.9967    2.8339 N.2       1 <0>        -0.6089
     16 C12        -1.2265   -5.2401    1.5517 C.2       1 <0>         0.5112
     17 O1         -1.2495   -6.5176    1.1031 O.3       1 <0>        -0.6129
     18 Cl1        -0.7455   -1.9469    6.8862 Cl        1 <0>        -0.0591
     19 Cl2        -0.9696    0.4811    4.9472 Cl        1 <0>        -0.0651
     20 H1         -3.8804    1.8338    0.5463 H         1 <0>         0.0581
     21 H2         -2.1862    1.8538    1.0917 H         1 <0>         0.0564
     22 H3         -2.5611    1.8583   -0.6483 H         1 <0>         0.0579
     23 H4         -3.1601   -0.4174    1.2957 H         1 <0>         0.0643
     24 H5         -3.5350   -0.4130   -0.4443 H         1 <0>         0.0723
     25 H6         -1.1235   -0.1607   -0.9633 H         1 <0>         0.1018
     26 H7         -0.7485   -0.1652    0.7767 H         1 <0>         0.0841
     27 H8         -1.2136   -0.4902    2.2896 H         1 <0>         0.1448
     28 H9         -0.8599   -4.3416    5.3683 H         1 <0>         0.1525
@<TRIPOS>BOND
     1    1    2 1
     2    1   20 1
     3    1   21 1
     4    1   22 1
     5    2    3 1
     6    2   23 1
     7    2   24 1
     8    3    4 1
     9    3   25 1
    10    3   26 1
    11    4    8 1
    12    4    5 2
    13    5    6 1
    14    6    7 2
    15    7   16 1
    16    7    8 1
    17    8    9 1
    18    9   14 ar
    19    9   10 ar
    20   10   11 ar
    21   10   27 1
    22   11   12 ar
    23   11   19 1
    24   12   13 ar
    25   12   18 1
    26   13   14 ar
    27   13   28 1
    28   14   15 1
    29   15   16 2
    30   16   17 1
@<TRIPOS>MOLECULE
CHEMBL13018
   57    60     0     0     0
SMALL
USER_CHARGES

@<TRIPOS>ATOM
      1 C1         -0.0993    0.9884    0.9731 C.ar      1 <0>        -0.1670
      2 C2          1.0962    1.6733    1.0807 C.ar      1 <0>         0.0998
      3 N1          2.2480    1.0349    1.0115 N.ar      1 <0>        -0.4891
      4 C3          2.3076   -0.2711    0.8389 C.ar      1 <0>         0.0994
      5 C4          1.1534   -1.0224    0.7235 C.ar      1 <0>        -0.1674
      6 C5         -0.0766   -0.3859    0.7909 C.ar      1 <0>        -0.0350
      7 C6         -1.3582   -1.1693    0.6695 C.3       1 <0>        -0.0964
      8 C7         -1.7726   -1.2446   -0.8014 C.3       1 <0>         0.1474
      9 N2         -3.0185   -2.0062   -0.9194 N.am      1 <0>        -0.7507
     10 C8         -3.5759   -2.2028   -2.1306 C.2       1 <0>         0.7035
     11 O1         -3.0448   -1.7482   -3.1254 O.2       1 <0>        -0.5940
     12 N3         -4.7221   -2.9035   -2.2392 N.am      1 <0>        -0.7399
     13 C9         -5.3281   -3.1172   -3.5557 C.3       1 <0>         0.2174
     14 C10        -6.5918   -3.9237   -3.4021 C.2       1 <0>        -0.1831
     15 C11        -6.6926   -5.3291   -3.4303 C.2       1 <0>        -0.1625
     16 C12        -7.9920   -5.6453   -3.2564 C.2       1 <0>        -0.0072
     17 N4         -8.6990   -4.4849   -3.1216 N.pl3     1 <0>        -0.4108
     18 C13        -7.8327   -3.4328   -3.2067 C.2       1 <0>         0.0634
     19 C14       -10.0842   -4.3896   -2.9236 C.ar      1 <0>         0.2069
     20 C15       -10.6708   -5.0067   -1.8304 C.ar      1 <0>        -0.1201
     21 C16       -12.0429   -4.9125   -1.6332 C.ar      1 <0>         0.2252
     22 C17       -12.8265   -4.1950   -2.5399 C.ar      1 <0>         0.1123
     23 C18       -12.2291   -3.5793   -3.6345 C.ar      1 <0>        -0.0413
     24 C19       -10.8658   -3.6713   -3.8214 C.ar      1 <0>        -0.0627
     25 N5        -10.2339   -3.0086   -4.9845 N.pl3     1 <0>         0.0399
     26 O2        -10.8896   -2.2862   -5.6985 O.2       1 <0>        -0.1682
     27 O3         -9.0621   -3.1898   -5.2203 O.3       1 <0>        -0.1336
     28 N6        -14.2033   -4.0907   -2.3579 N.am      1 <0>        -0.6303
     29 H1        -14.7393   -3.5906   -2.9931 H         1 <0>         0.4247
     30 C20       -14.7924   -4.6843   -1.3002 C.2       1 <0>         0.5180
     31 O4        -15.9931   -4.5967   -1.1377 O.2       1 <0>        -0.4633
     32 C21       -13.9554   -5.4498   -0.3321 C.2       1 <0>         0.5090
     33 O5        -14.4674   -5.9919    0.6268 O.2       1 <0>        -0.4449
     34 N7        -12.6247   -5.5352   -0.5325 N.am      1 <0>        -0.4898
     35 C22       -11.7899   -6.2846    0.4097 C.3       1 <0>         0.0165
     36 C23       -11.3122   -5.3620    1.5013 C.2       1 <0>         0.4874
     37 O6        -11.6388   -4.1874    1.4931 O.co2     1 <0>        -0.6765
     38 O7        -10.5991   -5.7903    2.3927 O.co2     1 <0>        -0.6777
     39 H2         -1.0395    1.5163    1.0346 H         1 <0>         0.1364
     40 H3          1.0871    2.7439    1.2227 H         1 <0>         0.1561
     41 H4          3.2696   -0.7592    0.7867 H         1 <0>         0.1558
     42 H5          1.2088   -2.0917    0.5822 H         1 <0>         0.1361
     43 H6         -1.2061   -2.1770    1.0561 H         1 <0>         0.0860
     44 H7         -2.1421   -0.6746    1.2430 H         1 <0>         0.0863
     45 H8         -1.9247   -0.2369   -1.1880 H         1 <0>         0.0678
     46 H9         -0.9887   -1.7393   -1.3749 H         1 <0>         0.0678
     47 H10        -3.4422   -2.3688   -0.1258 H         1 <0>         0.3978
     48 H11        -5.1459   -3.2661   -1.4456 H         1 <0>         0.3986
     49 H12        -5.5645   -2.1539   -4.0077 H         1 <0>         0.0705
     50 H13        -4.6284   -3.6563   -4.1945 H         1 <0>         0.0734
     51 H14        -5.8783   -6.0254   -3.5666 H         1 <0>         0.1426
     52 H15        -8.4025   -6.6439   -3.2286 H         1 <0>         0.1652
     53 H16        -8.0960   -2.3880   -3.1328 H         1 <0>         0.1564
     54 H17       -10.0616   -5.5612   -1.1319 H         1 <0>         0.1702
     55 H18       -12.8333   -3.0244   -4.3369 H         1 <0>         0.1722
     56 H19       -12.3736   -7.0943    0.8478 H         1 <0>         0.1061
     57 H20       -10.9307   -6.6999   -0.1170 H         1 <0>         0.0954
@<TRIPOS>BOND
     1    1    6 ar
     2    1    2 ar
     3    1   39 1
     4    2    3 ar
     5    2   40 1
     6    3    4 ar
     7    4    5 ar
     8    4   41 1
     9    5    6 ar
    10    5   42 1
    11    6    7 1
    12    7    8 1
    13    7   43 1
    14    7   44 1
    15    8    9 1
    16    8   45 1
    17    8   46 1
    18    9   10 am
    19    9   47 1
    20   10   11 2
    21   10   12 am
    22   12   13 1
    23   12   48 1
    24   13   14 1
    25   13   49 1
    26   13   50 1
    27   14   18 2
    28   14   15 1
    29   15   16 2
    30   15   51 1
    31   16   17 1
    32   16   52 1
    33   17   18 1
    34   17   19 1
    35   18   53 1
    36   19   24 ar
    37   19   20 ar
    38   20   21 ar
    39   20   54 1
    40   21   34 1
    41   21   22 ar
    42   22   23 ar
    43   22   28 1
    44   23   24 ar
    45   23   55 1
    46   24   25 1
    47   25   26 2
    48   25   27 1
    49   28   29 1
    50   28   30 am
    51   30   31 2
    52   30   32 1
    53   32   33 2
    54   32   34 am
    55   34   35 1
    56   35   36 1
    57   35   56 1
    58   35   57 1
    59   36   37 2
    60   36   38 1
@<TRIPOS>MOLECULE
CHEMBL13018
   56    59     0     0     0
SMALL
USER_CHARGES

@<TRIPOS>ATOM
      1 C1          0.2080    0.5225    0.6371 C.ar      1 <0>        -0.1667
      2 C2          1.4333    1.1577    0.7090 C.ar      1 <0>         0.0989
      3 N1          2.5554    0.4721    0.6098 N.ar      1 <0>        -0.4905
      4 C3          2.5563   -0.8356    0.4399 C.ar      1 <0>         0.0984
      5 C4          1.3693   -1.5388    0.3593 C.ar      1 <0>        -0.1672
      6 C5          0.1690   -0.8520    0.4589 C.ar      1 <0>        -0.0334
      7 C6         -1.1468   -1.5820    0.3759 C.3       1 <0>        -0.0963
      8 C7         -1.6049   -1.6433   -1.0826 C.3       1 <0>         0.1479
      9 N2         -2.8840   -2.3530   -1.1633 N.am      1 <0>        -0.7526
     10 C8         -3.4828   -2.5290   -2.3578 C.2       1 <0>         0.7018
     11 O1         -2.9614   -2.0989   -3.3685 O.2       1 <0>        -0.5968
     12 N3         -4.6595   -3.1820   -2.4321 N.am      1 <0>        -0.7346
     13 C9         -5.3104   -3.3734   -3.7305 C.3       1 <0>         0.2203
     14 C10        -6.6015   -4.1266   -3.5390 C.2       1 <0>        -0.1948
     15 C11        -6.7608   -5.5270   -3.5598 C.2       1 <0>        -0.1870
     16 C12        -8.0665   -5.7892   -3.3487 C.2       1 <0>         0.0416
     17 N4         -8.7214   -4.6000   -3.1979 N.pl3     1 <0>        -0.3851
     18 C13        -7.8148   -3.5845   -3.3107 C.2       1 <0>         0.0235
     19 C14       -10.0929   -4.4476   -2.9617 C.ar      1 <0>         0.1206
     20 C15       -10.8657   -3.7092   -3.8421 C.ar      1 <0>        -0.1119
     21 C16       -12.2267   -3.5583   -3.6071 C.ar      1 <0>         0.1421
     22 C17       -12.8103   -4.1574   -2.4752 C.ar      1 <0>         0.1727
     23 C18       -12.0079   -4.9011   -1.5967 C.ar      1 <0>        -0.0588
     24 C19       -10.6749   -5.0447   -1.8442 C.ar      1 <0>        -0.0501
     25 N5         -9.8372   -5.8365   -0.9155 N.pl3     1 <0>         0.0482
     26 O2        -10.3533   -6.4558   -0.0145 O.2       1 <0>        -0.1894
     27 O3         -8.6369   -5.8639   -1.0580 O.3       1 <0>        -0.1619
     28 N6        -14.1294   -4.0224   -2.2309 N.2       1 <0>        -0.6064
     29 C20       -14.8967   -3.3347   -3.0345 C.2       1 <0>         0.4292
     30 O4        -16.2198   -3.2132   -2.7669 O.3       1 <0>        -0.6267
     31 C21       -14.3267   -2.6911   -4.2298 C.2       1 <0>         0.4787
     32 O5        -15.0366   -2.0491   -4.9823 O.2       1 <0>        -0.5081
     33 N7        -13.0060   -2.8231   -4.4812 N.am      1 <0>        -0.4859
     34 C22       -12.4078   -2.1951   -5.6620 C.3       1 <0>         0.0236
     35 C23       -12.4625   -3.1542   -6.8230 C.2       1 <0>         0.4889
     36 O6        -12.9555   -4.2599   -6.6777 O.co2     1 <0>        -0.6747
     37 O7        -12.0138   -2.8246   -7.9077 O.co2     1 <0>        -0.6982
     38 H1         -0.7075    1.0889    0.7231 H         1 <0>         0.1366
     39 H2          1.4723    2.2281    0.8477 H         1 <0>         0.1556
     40 H3          3.4955   -1.3631    0.3626 H         1 <0>         0.1552
     41 H4          1.3765   -2.6098    0.2201 H         1 <0>         0.1363
     42 H5         -1.0256   -2.5943    0.7614 H         1 <0>         0.0857
     43 H6         -1.8933   -1.0542    0.9694 H         1 <0>         0.0858
     44 H7         -1.7262   -0.6310   -1.4682 H         1 <0>         0.0666
     45 H8         -0.8585   -2.1711   -1.6761 H         1 <0>         0.0665
     46 H9         -3.3000   -2.6961   -0.3570 H         1 <0>         0.3967
     47 H10        -5.0755   -3.5251   -1.6257 H         1 <0>         0.3995
     48 H11        -5.5195   -2.4021   -4.1788 H         1 <0>         0.0665
     49 H12        -4.6518   -3.9422   -4.3867 H         1 <0>         0.0694
     50 H13        -5.9799   -6.2565   -3.7164 H         1 <0>         0.1337
     51 H14        -8.5167   -6.7700   -3.3065 H         1 <0>         0.1499
     52 H15        -8.0327   -2.5296   -3.2330 H         1 <0>         0.1579
     53 H16       -10.4118   -3.2516   -4.7087 H         1 <0>         0.1461
     54 H17       -12.4477   -5.3641   -0.7258 H         1 <0>         0.1582
     55 H18       -12.9615   -1.2901   -5.9119 H         1 <0>         0.0927
     56 H19       -11.3696   -1.9392   -5.4507 H         1 <0>         0.0818
@<TRIPOS>BOND
     1    1    6 ar
     2    1    2 ar
     3    1   38 1
     4    2    3 ar
     5    2   39 1
     6    3    4 ar
     7    4    5 ar
     8    4   40 1
     9    5    6 ar
    10    5   41 1
    11    6    7 1
    12    7    8 1
    13    7   42 1
    14    7   43 1
    15    8    9 1
    16    8   44 1
    17    8   45 1
    18    9   10 am
    19    9   46 1
    20   10   11 2
    21   10   12 am
    22   12   13 1
    23   12   47 1
    24   13   14 1
    25   13   48 1
    26   13   49 1
    27   14   18 2
    28   14   15 1
    29   15   16 2
    30   15   50 1
    31   16   17 1
    32   16   51 1
    33   17   18 1
    34   17   19 1
    35   18   52 1
    36   19   24 ar
    37   19   20 ar
    38   20   21 ar
    39   20   53 1
    40   21   33 1
    41   21   22 ar
    42   22   23 ar
    43   22   28 1
    44   23   24 ar
    45   23   54 1
    46   24   25 1
    47   25   26 2
    48   25   27 1
    49   28   29 2
    50   29   30 1
    51   29   31 1
    52   31   32 2
    53   31   33 am
    54   33   34 1
    55   34   35 1
    56   34   55 1
    57   34   56 1
    58   35   36 2
    59   35   37 1
@<TRIPOS>MOLECULE
CHEMBL215090
   46    48     0     0     0
SMALL
USER_CHARGES

@<TRIPOS>ATOM
      1 C1         -0.0187    1.5258    0.0104 C.3       1 <0>        -0.1470
      2 C2          0.0021   -0.0041    0.0020 C.3       1 <0>        -0.0601
      3 C3          0.7309   -0.5033    1.2229 C.2       1 <0>         0.0818
      4 C4          2.0880   -0.7460    1.2999 C.2       1 <0>        -0.1400
      5 C5          2.3481   -1.2139    2.6651 C.2       1 <0>        -0.0678
      6 C6          1.1126   -1.2149    3.3066 C.2       1 <0>         0.0083
      7 N1          0.1643   -0.7764    2.4081 N.pl3     1 <0>        -0.3990
      8 C7         -1.2631   -0.6313    2.7046 C.3       1 <0>         0.0672
      9 C8          0.8732   -1.5950    4.6487 C.2       1 <0>         0.5389
     10 O1         -0.2639   -1.5537    5.1037 O.co2     1 <0>        -0.6947
     11 O2          1.8030   -1.9654    5.3558 O.co2     1 <0>        -0.6569
     12 C9          3.6526   -1.6038    3.2411 C.ar      1 <0>         0.0337
     13 C10         3.8770   -2.9263    3.6309 C.ar      1 <0>        -0.0653
     14 C11         5.0919   -3.2889    4.1667 C.ar      1 <0>        -0.1004
     15 C12         6.0996   -2.3354    4.3205 C.ar      1 <0>        -0.0728
     16 C13         5.8758   -1.0138    3.9317 C.ar      1 <0>        -0.0980
     17 C14         4.6633   -0.6512    3.3904 C.ar      1 <0>        -0.1069
     18 C15         7.4069   -2.7263    4.8972 C.ar      1 <0>        -0.0081
     19 C16         7.4594   -3.4490    6.0876 C.ar      1 <0>        -0.0913
     20 C17         8.6795   -3.8110    6.6205 C.ar      1 <0>        -0.1235
     21 C18         9.8546   -3.4597    5.9777 C.ar      1 <0>        -0.1096
     22 C19         9.8172   -2.7437    4.7975 C.ar      1 <0>        -0.1350
     23 C20         8.5970   -2.3764    4.2456 C.ar      1 <0>        -0.0820
     24 S1          8.5457   -1.4686    2.7363 S.3       1 <0>        -0.0864
     25 C21        10.2915   -1.2609    2.2896 C.3       1 <0>        -0.1622
     26 C22         3.0508   -0.5748    0.2538 C.1       1 <0>         0.3070
     27 N2          3.8146   -0.4390   -0.5761 N.1       1 <0>        -0.4623
     28 H1          1.0039    1.9031    0.0027 H         1 <0>         0.0594
     29 H2         -0.5459    1.8868   -0.8726 H         1 <0>         0.0602
     30 H3         -0.5289    1.8773    0.9072 H         1 <0>         0.0567
     31 H4         -1.0205   -0.3814    0.0098 H         1 <0>         0.0763
     32 H5          0.5123   -0.3556   -0.8948 H         1 <0>         0.0832
     33 H6         -1.7780   -1.5649    2.4778 H         1 <0>         0.0712
     34 H7         -1.3925   -0.3922    3.7601 H         1 <0>         0.1182
     35 H8         -1.6808    0.1710    2.0964 H         1 <0>         0.0700
     36 H9          3.0973   -3.6641    3.5123 H         1 <0>         0.1195
     37 H10         5.2654   -4.3112    4.4684 H         1 <0>         0.1171
     38 H11         6.6558   -0.2764    4.0513 H         1 <0>         0.1223
     39 H12         4.4919    0.3705    3.0854 H         1 <0>         0.1164
     40 H13         6.5457   -3.7251    6.5929 H         1 <0>         0.1325
     41 H14         8.7183   -4.3708    7.5433 H         1 <0>         0.1241
     42 H15        10.8054   -3.7468    6.4018 H         1 <0>         0.1211
     43 H16        10.7374   -2.4729    4.3012 H         1 <0>         0.1204
     44 H17        10.8063   -0.7148    3.0800 H         1 <0>         0.0796
     45 H18        10.7535   -2.2402    2.1643 H         1 <0>         0.0787
     46 H19        10.3638   -0.7030    1.3560 H         1 <0>         0.1053
@<TRIPOS>BOND
     1    1    2 1
     2    1   28 1
     3    1   29 1
     4    1   30 1
     5    2    3 1
     6    2   31 1
     7    2   32 1
     8    3    7 1
     9    3    4 2
    10    4    5 1
    11    4   26 1
    12    5    6 2
    13    5   12 1
    14    6    7 1
    15    6    9 1
    16    7    8 1
    17    8   33 1
    18    8   34 1
    19    8   35 1
    20    9   10 2
    21    9   11 1
    22   12   17 ar
    23   12   13 ar
    24   13   14 ar
    25   13   36 1
    26   14   15 ar
    27   14   37 1
    28   15   16 ar
    29   15   18 1
    30   16   17 ar
    31   16   38 1
    32   17   39 1
    33   18   23 ar
    34   18   19 ar
    35   19   20 ar
    36   19   40 1
    37   20   21 ar
    38   20   41 1
    39   21   22 ar
    40   21   42 1
    41   22   23 ar
    42   22   43 1
    43   23   24 1
    44   24   25 1
    45   25   44 1
    46   25   45 1
    47   25   46 1
    48   26   27 3
@<TRIPOS>MOLECULE
CHEMBL76232
   18    17     0     0     0
SMALL
USER_CHARGES

@<TRIPOS>ATOM
      1 C1         -0.0187    1.5258    0.0104 C.3       1 <0>        -0.1010
      2 C2          0.0021   -0.0041    0.0020 C.3       1 <0>        -0.1959
      3 C3         -1.4117   -0.5257    0.0127 C.2       1 <0>         0.4893
      4 O1         -2.3491    0.2539    0.0259 O.co2     1 <0>        -0.6871
      5 O2         -1.6182   -1.7273    0.0082 O.co2     1 <0>        -0.7016
      6 C4          1.4167    2.0553   -0.0004 C.3       1 <0>        -0.0510
      7 H1          1.9696    1.6236    0.8338 H         1 <0>         0.1263
      8 C5          1.3993    3.5565    0.1316 C.2       1 <0>         0.4931
      9 O3          1.4342    4.0717    1.2361 O.co2     1 <0>        -0.6465
     10 O4          1.3504    4.2557   -0.8660 O.co2     1 <0>        -0.6784
     11 N1          2.0667    1.6824   -1.2639 N.4       1 <0>        -0.6121
     12 H2         -0.5459    1.8868   -0.8726 H         1 <0>         0.0805
     13 H3         -0.5289    1.8773    0.9072 H         1 <0>         0.1026
     14 H4          0.5123   -0.3556   -0.8948 H         1 <0>         0.0475
     15 H5          0.5293   -0.3651    0.8851 H         1 <0>         0.0673
     16 H6          3.0133    2.0317   -1.2711 H         1 <0>         0.4211
     17 H7          2.0783    0.6774   -1.3524 H         1 <0>         0.4148
     18 H8          1.5549    2.0821   -2.0362 H         1 <0>         0.4310
@<TRIPOS>BOND
     1    1    2 1
     2    1    6 1
     3    1   12 1
     4    1   13 1
     5    2    3 1
     6    2   14 1
     7    2   15 1
     8    3    4 2
     9    3    5 1
    10    6    7 1
    11    6    8 1
    12    6   11 1
    13    8    9 2
    14    8   10 1
    15   11   16 1
    16   11   17 1
    17   11   18 1
@<TRIPOS>MOLECULE
CHEMBL217826
   28    30     0     0     0
SMALL
USER_CHARGES

@<TRIPOS>ATOM
      1 C1         -0.0171    1.4105    0.0098 C.2       1 <0>        -0.2852
      2 C2          1.1522    2.0870    0.0023 C.2       1 <0>         0.1488
      3 N1          2.3366    1.4231   -0.0131 N.pl3     1 <0>        -0.4225
      4 C3          2.3874    0.0662   -0.0213 C.2       1 <0>         0.1487
      5 C4          1.2522   -0.6661   -0.0144 C.2       1 <0>        -0.2851
      6 C5          0.0021   -0.0041    0.0020 C.2       1 <0>         0.3919
      7 O1         -1.0411   -0.6418    0.0090 O.2       1 <0>        -0.5361
      8 C6          3.5321    2.1539   -0.0210 C.ar      1 <0>         0.0319
      9 C7          4.1356    2.5024    1.1760 C.ar      1 <0>         0.0168
     10 C8          5.3236    3.2282    1.1583 C.ar      1 <0>        -0.1736
     11 C9          5.9033    3.6029   -0.0673 C.ar      1 <0>         0.2374
     12 C10         5.2879    3.2471   -1.2571 C.ar      1 <0>        -0.1594
     13 C11         4.1123    2.5224   -1.2332 C.ar      1 <0>         0.0337
     14 Cl1         3.3480    2.0723   -2.7255 Cl        1 <0>        -0.0421
     15 N2          7.0884    4.3259   -0.0516 N.am      1 <0>        -0.6452
     16 H1          7.5002    4.5915   -0.8887 H         1 <0>         0.4248
     17 C12         7.6704    4.6617    1.1125 C.2       1 <0>         0.6674
     18 O2          8.7075    5.2956    1.0829 O.2       1 <0>        -0.5436
     19 N3          7.1556    4.3278    2.3061 N.am      1 <0>        -0.3480
     20 C13         6.0069    3.6240    2.4024 C.2       1 <0>         0.5302
     21 O3          5.5476    3.3257    3.4881 O.2       1 <0>        -0.5113
     22 O4          7.8303    4.7205    3.4875 O.3       1 <0>        -0.6139
     23 H2         -0.9562    1.9436    0.0261 H         1 <0>         0.1476
     24 H3          1.1449    3.1669    0.0081 H         1 <0>         0.1623
     25 H4          3.3452   -0.4327   -0.0338 H         1 <0>         0.1623
     26 H5          1.2985   -1.7451   -0.0217 H         1 <0>         0.1476
     27 H6          3.6882    2.2136    2.1156 H         1 <0>         0.1592
     28 H7          5.7288    3.5323   -2.2009 H         1 <0>         0.1551
@<TRIPOS>BOND
     1    1    6 1
     2    1    2 2
     3    1   23 1
     4    2    3 1
     5    2   24 1
     6    3    4 1
     7    3    8 1
     8    4    5 2
     9    4   25 1
    10    5    6 1
    11    5   26 1
    12    6    7 2
    13    8   13 ar
    14    8    9 ar
    15    9   10 ar
    16    9   27 1
    17   10   20 1
    18   10   11 ar
    19   11   12 ar
    20   11   15 1
    21   12   13 ar
    22   12   28 1
    23   13   14 1
    24   15   16 1
    25   15   17 am
    26   17   18 2
    27   17   19 am
    28   19   20 am
    29   19   22 1
    30   20   21 2
@<TRIPOS>MOLECULE
CHEMBL217826
   27    29     0     0     0
SMALL
USER_CHARGES

@<TRIPOS>ATOM
      1 C1         -0.0171    1.4105    0.0098 C.2       1 <0>        -0.3084
      2 C2          1.1522    2.0870    0.0023 C.2       1 <0>         0.1626
      3 N1          2.3366    1.4231   -0.0131 N.pl3     1 <0>        -0.3904
      4 C3          2.3874    0.0662   -0.0208 C.2       1 <0>         0.1624
      5 C4          1.2522   -0.6661   -0.0140 C.2       1 <0>        -0.3083
      6 C5          0.0021   -0.0041    0.0020 C.2       1 <0>         0.3941
      7 O1         -1.0411   -0.6418    0.0086 O.2       1 <0>        -0.5632
      8 C6          3.5317    2.1536   -0.0215 C.ar      1 <0>        -0.0706
      9 C7          4.1332    2.5012    1.1748 C.ar      1 <0>         0.0310
     10 C8          5.3218    3.2279    1.1594 C.ar      1 <0>        -0.2620
     11 C9          5.9063    3.6058   -0.0712 C.ar      1 <0>         0.2579
     12 C10         5.2823    3.2445   -1.2678 C.ar      1 <0>        -0.1505
     13 C11         4.1113    2.5215   -1.2372 C.ar      1 <0>         0.0325
     14 Cl1         3.3429    2.0685   -2.7265 Cl        1 <0>        -0.0911
     15 N2          7.0625    4.3129   -0.0613 N.2       1 <0>        -0.6281
     16 C12         7.6471    4.6520    1.0568 C.2       1 <0>         0.5992
     17 O2          8.7969    5.3569    0.9926 O.3       1 <0>        -0.6649
     18 N3          7.1522    4.3288    2.2848 N.am      1 <0>        -0.3473
     19 C13         6.0029    3.6240    2.3998 C.2       1 <0>         0.5170
     20 O3          5.5497    3.3292    3.4905 O.2       1 <0>        -0.5769
     21 O4          7.8468    4.7339    3.4504 O.3       1 <0>        -0.6560
     22 H1         -0.9562    1.9436    0.0261 H         1 <0>         0.1396
     23 H2          1.1449    3.1669    0.0081 H         1 <0>         0.1584
     24 H3          3.3452   -0.4328   -0.0330 H         1 <0>         0.1584
     25 H4          1.2985   -1.7451   -0.0209 H         1 <0>         0.1396
     26 H5          3.6847    2.2117    2.1137 H         1 <0>         0.1296
     27 H6          5.7194    3.5279   -2.2138 H         1 <0>         0.1356
@<TRIPOS>BOND
     1    1    6 1
     2    1    2 2
     3    1   22 1
     4    2    3 1
     5    2   23 1
     6    3    4 1
     7    3    8 1
     8    4    5 2
     9    4   24 1
    10    5    6 1
    11    5   25 1
    12    6    7 2
    13    8   13 ar
    14    8    9 ar
    15    9   10 ar
    16    9   26 1
    17   10   19 1
    18   10   11 ar
    19   11   12 ar
    20   11   15 1
    21   12   13 ar
    22   12   27 1
    23   13   14 1
    24   15   16 2
    25   16   17 1
    26   16   18 1
    27   18   19 am
    28   18   21 1
    29   19   20 2
@<TRIPOS>MOLECULE
CHEMBL327936
   32    35     0     0     0
SMALL
USER_CHARGES

@<TRIPOS>ATOM
      1 C1          0.1272   -0.3279   -1.0210 C.2       1 <0>        -0.0198
      2 C2          1.4414   -0.3611   -1.3135 C.2       1 <0>        -0.0381
      3 N1          2.0947    0.2509   -0.2754 N.pl3     1 <0>        -0.4298
      4 C3          1.1482    0.6376    0.6184 C.2       1 <0>         0.1866
      5 N2         -0.0231    0.2863    0.1618 N.2       1 <0>        -0.4782
      6 C4          3.4800    0.4414   -0.1581 C.ar      1 <0>         0.1654
      7 C5          4.1692    1.1312   -1.1424 C.ar      1 <0>        -0.0671
      8 C6          5.5405    1.3204   -1.0265 C.ar      1 <0>         0.1587
      9 C7          6.2204    0.8138    0.0827 C.ar      1 <0>         0.1646
     10 C8          5.5201    0.1223    1.0655 C.ar      1 <0>        -0.0698
     11 C9          4.1580   -0.0571    0.9482 C.ar      1 <0>        -0.1527
     12 C10         3.4032   -0.8013    2.0194 C.3       1 <0>         0.5160
     13 F1          4.3085   -1.3321    2.9446 F         1 <0>        -0.1692
     14 F2          2.5313    0.0773    2.6715 F         1 <0>        -0.1683
     15 F3          2.6691   -1.8399    1.4367 F         1 <0>        -0.1635
     16 N3          7.5953    0.9937    0.2151 N.am      1 <0>        -0.6372
     17 C11         8.2874    1.6623   -0.7296 C.2       1 <0>         0.6098
     18 C12         7.5762    2.2006   -1.9036 C.2       1 <0>         0.1312
     19 N4          6.2297    2.0150   -2.0195 N.pl3     1 <0>        -0.2559
     20 N5          5.8452    2.5692   -3.1174 N.2       1 <0>        -0.2509
     21 C13         6.8931    3.1055   -3.7162 C.2       1 <0>         0.1803
     22 N6          7.9742    2.8777   -2.9597 N.2       1 <0>        -0.3826
     23 C14         6.8753    3.8336   -5.0012 C.2       1 <0>         0.5742
     24 O1          5.8227    3.9813   -5.6057 O.co2     1 <0>        -0.6490
     25 O2          7.9132    4.2886   -5.4605 O.co2     1 <0>        -0.6411
     26 O3          9.4879    1.8203   -0.6140 O.2       1 <0>        -0.4641
     27 H1         -0.6684   -0.7233   -1.6350 H         1 <0>         0.1769
     28 H2          1.8938   -0.7884   -2.1962 H         1 <0>         0.1814
     29 H3          1.3335    1.1498    1.5511 H         1 <0>         0.2159
     30 H4          3.6406    1.5212   -1.9996 H         1 <0>         0.1717
     31 H5          6.0435   -0.2709    1.9244 H         1 <0>         0.1712
     32 H6          8.0567    0.6369    0.9901 H         1 <0>         0.4333
@<TRIPOS>BOND
     1    1    5 1
     2    1    2 2
     3    1   27 1
     4    2    3 1
     5    2   28 1
     6    3    4 1
     7    3    6 1
     8    4    5 2
     9    4   29 1
    10    6   11 ar
    11    6    7 ar
    12    7    8 ar
    13    7   30 1
    14    8   19 1
    15    8    9 ar
    16    9   10 ar
    17    9   16 1
    18   10   11 ar
    19   10   31 1
    20   11   12 1
    21   12   13 1
    22   12   14 1
    23   12   15 1
    24   16   17 am
    25   16   32 1
    26   17   18 1
    27   17   26 2
    28   18   22 2
    29   18   19 1
    30   19   20 1
    31   20   21 2
    32   21   22 1
    33   21   23 1
    34   23   24 2
    35   23   25 1
@<TRIPOS>MOLECULE
CHEMBL49199
   39    42     0     0     0
SMALL
USER_CHARGES

@<TRIPOS>ATOM
      1 C1         -0.0166    1.3741    0.0096 C.ar      1 <0>        -0.1306
      2 C2          1.1701    2.0876    0.0021 C.ar      1 <0>        -0.0671
      3 C3          2.3841    1.4255   -0.0130 C.ar      1 <0>        -0.1554
      4 C4          2.4211    0.0439   -0.0207 C.ar      1 <0>         0.1347
      5 C5          1.2244   -0.6837   -0.0132 C.ar      1 <0>        -0.0411
      6 C6          0.0021   -0.0041    0.0020 C.ar      1 <0>        -0.0524
      7 C7          1.2522   -2.1154   -0.0211 C.1       1 <0>        -0.0095
      8 C8          1.2750   -3.2891   -0.0276 C.1       1 <0>        -0.1327
      9 C9          1.3027   -4.7208   -0.0355 C.2       1 <0>         0.5235
     10 N1          2.4680   -5.3256   -0.0444 N.2       1 <0>        -0.4874
     11 C10         2.5675   -6.6685   -0.0518 C.ar      1 <0>         0.1464
     12 C11         3.8115   -7.3082   -0.0608 C.ar      1 <0>        -0.0722
     13 C12         3.8743   -8.6725   -0.0676 C.ar      1 <0>        -0.1031
     14 C13         2.7154   -9.4421   -0.0662 C.ar      1 <0>         0.0895
     15 C14         1.4737   -8.8399   -0.0578 C.ar      1 <0>        -0.0753
     16 C15         1.3878   -7.4487   -0.0498 C.ar      1 <0>        -0.1657
     17 C16         0.0929   -6.7537   -0.0398 C.2       1 <0>         0.5576
     18 O1         -0.9555   -7.3724   -0.0373 O.2       1 <0>        -0.4818
     19 N2          0.1091   -5.4005   -0.0278 N.am      1 <0>        -0.4927
     20 C17        -1.0972   -4.6895   -0.0125 C.ar      1 <0>         0.1061
     21 C18        -1.7111   -4.3347   -1.2065 C.ar      1 <0>        -0.0827
     22 C19        -2.9007   -3.6335   -1.1882 C.ar      1 <0>        -0.1034
     23 C20        -3.4811   -3.2838    0.0175 C.ar      1 <0>        -0.0829
     24 C21        -2.8733   -3.6351    1.2086 C.ar      1 <0>        -0.0991
     25 C22        -1.6857   -4.3424    1.1976 C.ar      1 <0>        -0.0135
     26 Cl1        -0.9267   -4.7900    2.6934 Cl        1 <0>        -0.0519
     27 F1          2.8063  -10.7900   -0.0736 F         1 <0>        -0.1287
     28 F2          3.6073   -0.6024   -0.0359 F         1 <0>        -0.1252
     29 H1         -0.9601    1.8994    0.0259 H         1 <0>         0.1407
     30 H2          1.1475    3.1673    0.0077 H         1 <0>         0.1409
     31 H3          3.3053    1.9892   -0.0191 H         1 <0>         0.1451
     32 H4         -0.9251   -0.5579    0.0082 H         1 <0>         0.1431
     33 H5          4.7203   -6.7246   -0.0627 H         1 <0>         0.1552
     34 H6          4.8375   -9.1610   -0.0746 H         1 <0>         0.1522
     35 H7          0.5766   -9.4411   -0.0575 H         1 <0>         0.1544
     36 H8         -1.2584   -4.6066   -2.1486 H         1 <0>         0.1367
     37 H9         -3.3783   -3.3574   -2.1167 H         1 <0>         0.1414
     38 H10        -4.4111   -2.7348    0.0286 H         1 <0>         0.1424
     39 H11        -3.3289   -3.3602    2.1484 H         1 <0>         0.1445
@<TRIPOS>BOND
     1    1    6 ar
     2    1    2 ar
     3    1   29 1
     4    2    3 ar
     5    2   30 1
     6    3    4 ar
     7    3   31 1
     8    4    5 ar
     9    4   28 1
    10    5    6 ar
    11    5    7 1
    12    6   32 1
    13    7    8 3
    14    8    9 1
    15    9   19 1
    16    9   10 2
    17   10   11 1
    18   11   16 ar
    19   11   12 ar
    20   12   13 ar
    21   12   33 1
    22   13   14 ar
    23   13   34 1
    24   14   15 ar
    25   14   27 1
    26   15   16 ar
    27   15   35 1
    28   16   17 1
    29   17   18 2
    30   17   19 am
    31   19   20 1
    32   20   25 ar
    33   20   21 ar
    34   21   22 ar
    35   21   36 1
    36   22   23 ar
    37   22   37 1
    38   23   24 ar
    39   23   38 1
    40   24   25 ar
    41   24   39 1
    42   25   26 1
@<TRIPOS>MOLECULE
CHEMBL556378
   40    42     0     0     0
SMALL
USER_CHARGES

@<TRIPOS>ATOM
      1 C1          1.8558    1.1941    0.5474 C.ar      1 <0>        -0.1184
      2 C2          0.9769    2.1267    0.0353 C.ar      1 <0>         0.0098
      3 C3         -0.1980    1.7178   -0.5723 C.ar      1 <0>        -0.0163
      4 C4         -0.4988    0.3745   -0.6705 C.ar      1 <0>        -0.0554
      5 C5          0.3786   -0.5743   -0.1579 C.ar      1 <0>         0.1132
      6 C6          1.5637   -0.1619    0.4545 C.ar      1 <0>         0.1703
      7 N1          2.4552   -1.0966    0.9734 N.am      1 <0>        -0.6318
      8 C7          2.1798   -2.4139    0.8875 C.2       1 <0>         0.5120
      9 C8          0.9141   -2.8545    0.2328 C.2       1 <0>         0.5120
     10 N2          0.0681   -1.9274   -0.2603 N.am      1 <0>        -0.6296
     11 O1          0.6478   -4.0363    0.1455 O.2       1 <0>        -0.4600
     12 O2          2.9547   -3.2333    1.3384 O.2       1 <0>        -0.4557
     13 N3         -1.1351    2.7251   -1.1183 N.pl3     1 <0>         0.0349
     14 O3         -2.2072    2.3784   -1.5566 O.2       1 <0>        -0.1880
     15 O4         -0.8284    3.8945   -1.1261 O.3       1 <0>        -0.0959
     16 C9          1.2968    3.5958    0.1384 C.3       1 <0>         0.0817
     17 N4          1.7202    4.0981   -1.1755 N.3       1 <0>        -0.5200
     18 C10         3.0516    3.5896   -1.5293 C.3       1 <0>         0.0531
     19 C11         3.3972    4.0122   -2.9590 C.3       1 <0>        -0.0862
     20 C12         3.3719    5.5402   -3.0545 C.3       1 <0>        -0.1554
     21 C13         1.9895    6.0473   -2.6345 C.3       1 <0>        -0.0872
     22 C14         1.6847    5.5656   -1.2142 C.3       1 <0>         0.0666
     23 C15         3.6527    5.9608   -4.4741 C.2       1 <0>         0.4954
     24 O5          3.1730    6.9934   -4.9102 O.co2     1 <0>        -0.6993
     25 O6          4.3595    5.2684   -5.1866 O.co2     1 <0>        -0.7028
     26 H1          2.7732    1.5176    1.0166 H         1 <0>         0.1604
     27 H2         -1.4165    0.0602   -1.1454 H         1 <0>         0.1675
     28 H3          0.4104    4.1385    0.4666 H         1 <0>         0.1068
     29 H4          2.1006    3.7428    0.8598 H         1 <0>         0.0503
     30 H5          3.7912    3.9984   -0.8409 H         1 <0>         0.0298
     31 H6          3.0547    2.5017   -1.4614 H         1 <0>         0.0600
     32 H7          4.3919    3.6479   -3.2157 H         1 <0>         0.0667
     33 H8          2.6657    3.5923   -3.6494 H         1 <0>         0.0602
     34 H9          4.1301    5.9591   -2.3928 H         1 <0>         0.0560
     35 H10         1.9785    7.1369   -2.6594 H         1 <0>         0.0695
     36 H11         1.2359    5.6594   -3.3199 H         1 <0>         0.0644
     37 H12         0.6951    5.9130   -0.9175 H         1 <0>         0.0792
     38 H13         2.4308    5.9652   -0.5273 H         1 <0>         0.0258
     39 H14        -0.7577   -2.2039   -0.6876 H         1 <0>         0.4278
     40 H15         3.2759   -0.8000    1.3970 H         1 <0>         0.4285
@<TRIPOS>BOND
     1    1    6 ar
     2    1    2 ar
     3    1   26 1
     4    2    3 ar
     5    2   16 1
     6    3    4 ar
     7    3   13 1
     8    4    5 ar
     9    4   27 1
    10    5   10 1
    11    5    6 ar
    12    6    7 1
    13    7    8 am
    14    7   40 1
    15    8    9 1
    16    8   12 2
    17    9   10 am
    18    9   11 2
    19   10   39 1
    20   13   14 2
    21   13   15 1
    22   16   17 1
    23   16   28 1
    24   16   29 1
    25   17   22 1
    26   17   18 1
    27   18   19 1
    28   18   30 1
    29   18   31 1
    30   19   20 1
    31   19   32 1
    32   19   33 1
    33   20   21 1
    34   20   23 1
    35   20   34 1
    36   21   22 1
    37   21   35 1
    38   21   36 1
    39   22   37 1
    40   22   38 1
    41   23   24 2
    42   23   25 1
@<TRIPOS>MOLECULE
CHEMBL12431
   50    53     0     0     0
SMALL
USER_CHARGES

@<TRIPOS>ATOM
      1 C1          0.2737    1.6134    0.3169 C.3       1 <0>        -0.0533
      2 N1          0.2432    0.1509    0.1828 N.4       1 <0>        -0.3829
      3 C2          1.0193   -0.2488   -0.9987 C.3       1 <0>         0.0440
      4 C3          2.4698    0.1022   -0.7891 C.ar      1 <0>        -0.1594
      5 C4          2.9440    1.3415   -1.1766 C.ar      1 <0>        -0.0972
      6 C5          4.2745    1.6634   -0.9844 C.ar      1 <0>        -0.1151
      7 C6          5.1308    0.7462   -0.4043 C.ar      1 <0>        -0.0857
      8 C7          4.6563   -0.4928   -0.0160 C.ar      1 <0>        -0.1137
      9 C8          3.3249   -0.8131   -0.2043 C.ar      1 <0>        -0.0937
     10 C9         -1.1472   -0.2979    0.0301 C.3       1 <0>         0.0790
     11 C10        -1.9136    0.0027    1.2923 C.2       1 <0>        -0.2276
     12 C11        -2.0491   -0.8477    2.4079 C.2       1 <0>        -0.1618
     13 C12        -2.8088   -0.2041    3.3176 C.2       1 <0>         0.0116
     14 N2         -3.1482    1.0149    2.8041 N.pl3     1 <0>        -0.4035
     15 C13        -2.5906    1.1371    1.5636 C.2       1 <0>         0.0798
     16 C14        -3.9342    1.9827    3.4463 C.ar      1 <0>         0.1854
     17 C15        -3.5451    2.4836    4.6783 C.ar      1 <0>        -0.1157
     18 C16        -4.3230    3.4427    5.3151 C.ar      1 <0>         0.1938
     19 C17        -5.4963    3.8982    4.7095 C.ar      1 <0>         0.1393
     20 C18        -5.8791    3.3894    3.4732 C.ar      1 <0>        -0.0403
     21 C19        -5.0996    2.4421    2.8432 C.ar      1 <0>        -0.0408
     22 N3         -5.5080    1.9085    1.5243 N.pl3     1 <0>         0.0316
     23 O1         -6.4529    2.3900    0.9436 O.2       1 <0>        -0.1354
     24 O2         -4.8967    0.9912    1.0277 O.3       1 <0>        -0.1408
     25 N4         -6.2882    4.8588    5.3339 N.am      1 <0>        -0.6334
     26 C20        -5.9257    5.3589    6.5325 C.2       1 <0>         0.5113
     27 C21        -4.6727    4.8726    7.1785 C.2       1 <0>         0.5119
     28 N5         -3.9254    3.9410    6.5526 N.am      1 <0>        -0.6341
     29 O3         -4.3290    5.3111    8.2578 O.2       1 <0>        -0.4291
     30 O4         -6.6128    6.1974    7.0805 O.2       1 <0>        -0.4320
     31 H1          1.3054    1.9464    0.4302 H         1 <0>         0.1210
     32 H2         -0.1595    2.0691   -0.5735 H         1 <0>         0.1198
     33 H3         -0.3022    1.9100    1.1936 H         1 <0>         0.1190
     34 H4          0.9238   -1.3241   -1.1495 H         1 <0>         0.1371
     35 H5          0.6416    0.2761   -1.8761 H         1 <0>         0.1352
     36 H6          2.2751    2.0581   -1.6298 H         1 <0>         0.1305
     37 H7          4.6452    2.6314   -1.2878 H         1 <0>         0.1349
     38 H8          6.1704    0.9975   -0.2548 H         1 <0>         0.1348
     39 H9          5.3254   -1.2095    0.4369 H         1 <0>         0.1354
     40 H10         2.9534   -1.7797    0.1025 H         1 <0>         0.1317
     41 H11        -1.6079    0.2251   -0.8080 H         1 <0>         0.1325
     42 H12        -1.1639   -1.3714   -0.1582 H         1 <0>         0.1376
     43 H13        -1.6232   -1.8344    2.5146 H         1 <0>         0.1536
     44 H14        -3.0991   -0.5868    4.2849 H         1 <0>         0.1760
     45 H15        -2.6788    1.9933    0.9112 H         1 <0>         0.1653
     46 H16        -2.6376    2.1283    5.1436 H         1 <0>         0.1716
     47 H17        -6.7864    3.7398    3.0036 H         1 <0>         0.1819
     48 H18        -3.1090    3.6180    6.9650 H         1 <0>         0.4320
     49 H19         0.6441   -0.2709    1.0070 H         1 <0>         0.4237
     50 H20        -7.1015    5.1688    4.9057 H         1 <0>         0.4340
@<TRIPOS>BOND
     1    1    2 1
     2    1   31 1
     3    1   32 1
     4    1   33 1
     5    2    3 1
     6    2   10 1
     7    2   49 1
     8    3    4 1
     9    3   34 1
    10    3   35 1
    11    4    9 ar
    12    4    5 ar
    13    5    6 ar
    14    5   36 1
    15    6    7 ar
    16    6   37 1
    17    7    8 ar
    18    7   38 1
    19    8    9 ar
    20    8   39 1
    21    9   40 1
    22   10   11 1
    23   10   41 1
    24   10   42 1
    25   11   15 2
    26   11   12 1
    27   12   13 2
    28   12   43 1
    29   13   14 1
    30   13   44 1
    31   14   15 1
    32   14   16 1
    33   15   45 1
    34   16   21 ar
    35   16   17 ar
    36   17   18 ar
    37   17   46 1
    38   18   28 1
    39   18   19 ar
    40   19   20 ar
    41   19   25 1
    42   20   21 ar
    43   20   47 1
    44   21   22 1
    45   22   23 2
    46   22   24 1
    47   25   26 am
    48   25   50 1
    49   26   27 1
    50   26   30 2
    51   27   28 am
    52   27   29 2
    53   28   48 1
@<TRIPOS>MOLECULE
CHEMBL12431
   49    52     0     0     0
SMALL
USER_CHARGES

@<TRIPOS>ATOM
      1 C1         -0.4452    1.2958    0.0333 C.3       1 <0>        -0.0530
      2 N1         -0.3029   -0.1650   -0.0273 N.4       1 <0>        -0.3823
      3 C2          0.3349   -0.6464    1.2053 C.3       1 <0>         0.0438
      4 C3         -0.5747   -0.3828    2.3776 C.ar      1 <0>        -0.1554
      5 C4         -0.4856    0.8124    3.0664 C.ar      1 <0>        -0.0963
      6 C5         -1.3199    1.0542    4.1417 C.ar      1 <0>        -0.1159
      7 C6         -2.2437    0.1011    4.5279 C.ar      1 <0>        -0.0886
      8 C7         -2.3334   -1.0937    3.8385 C.ar      1 <0>        -0.1147
      9 C8         -1.5020   -1.3338    2.7605 C.ar      1 <0>        -0.0935
     10 C9          0.5281   -0.5285   -1.1829 C.3       1 <0>         0.0842
     11 C10        -0.1838   -0.1442   -2.4543 C.2       1 <0>        -0.2403
     12 C11        -1.0756   -0.9524   -3.1874 C.2       1 <0>        -0.1837
     13 C12        -1.4881   -0.2363   -4.2532 C.2       1 <0>         0.0590
     14 N2         -0.8828    0.9868   -4.2054 N.pl3     1 <0>        -0.3826
     15 C13        -0.0885    1.0382   -3.0958 C.2       1 <0>         0.0450
     16 C14        -1.0533    2.0207   -5.1379 C.ar      1 <0>         0.1668
     17 C15         0.0412    2.5257   -5.8110 C.ar      1 <0>        -0.1204
     18 C16        -0.1290    3.5584   -6.7431 C.ar      1 <0>         0.2427
     19 C17        -1.4175    4.0692   -6.9818 C.ar      1 <0>         0.0565
     20 C18        -2.5081    3.5472   -6.2934 C.ar      1 <0>        -0.0435
     21 C19        -2.3274    2.5289   -5.3841 C.ar      1 <0>        -0.1048
     22 N3         -3.4931    1.9742   -4.6599 N.pl3     1 <0>         0.0556
     23 O1         -4.6116    2.3250   -4.9559 O.2       1 <0>        -0.1826
     24 O2         -3.3268    1.1703   -3.7724 O.3       1 <0>        -0.1803
     25 N4         -1.5992    5.0882   -7.8996 N.am      1 <0>        -0.6316
     26 C20        -0.5256    5.5789   -8.5562 C.2       1 <0>         0.4774
     27 C21         0.8063    5.0149   -8.2759 C.2       1 <0>         0.4341
     28 N5          0.9397    4.0527   -7.4022 N.2       1 <0>        -0.6013
     29 O3          1.8944    5.4944   -8.9254 O.3       1 <0>        -0.5717
     30 O4         -0.6569    6.4753   -9.3694 O.2       1 <0>        -0.4948
     31 H1          0.5391    1.7528    0.1355 H         1 <0>         0.1176
     32 H2         -0.9185    1.6530   -0.8813 H         1 <0>         0.1263
     33 H3         -1.0618    1.5655    0.8907 H         1 <0>         0.1175
     34 H4          0.5212   -1.7173    1.1237 H         1 <0>         0.1345
     35 H5          1.2797   -0.1235    1.3537 H         1 <0>         0.1330
     36 H6          0.2361    1.5571    2.7647 H         1 <0>         0.1309
     37 H7         -1.2499    1.9877    4.6803 H         1 <0>         0.1335
     38 H8         -2.8951    0.2898    5.3684 H         1 <0>         0.1328
     39 H9         -3.0549   -1.8385    4.1404 H         1 <0>         0.1339
     40 H10        -1.5746   -2.2657    2.2196 H         1 <0>         0.1316
     41 H11         1.4803   -0.0011   -1.1259 H         1 <0>         0.1273
     42 H12         0.7074   -1.6036   -1.1776 H         1 <0>         0.1316
     43 H13        -1.3739   -1.9608   -2.9410 H         1 <0>         0.1453
     44 H14        -2.1778   -0.5723   -5.0133 H         1 <0>         0.1608
     45 H15         0.5138    1.8797   -2.7867 H         1 <0>         0.1691
     46 H16         1.0261    2.1261   -5.6196 H         1 <0>         0.1561
     47 H17        -3.4982    3.9383   -6.4755 H         1 <0>         0.1546
     48 H18        -2.4851    5.4451   -8.0694 H         1 <0>         0.4102
     49 H19        -1.2141   -0.5881   -0.1219 H         1 <0>         0.4253
@<TRIPOS>BOND
     1    1    2 1
     2    1   31 1
     3    1   32 1
     4    1   33 1
     5    2    3 1
     6    2   10 1
     7    2   49 1
     8    3    4 1
     9    3   34 1
    10    3   35 1
    11    4    9 ar
    12    4    5 ar
    13    5    6 ar
    14    5   36 1
    15    6    7 ar
    16    6   37 1
    17    7    8 ar
    18    7   38 1
    19    8    9 ar
    20    8   39 1
    21    9   40 1
    22   10   11 1
    23   10   41 1
    24   10   42 1
    25   11   15 2
    26   11   12 1
    27   12   13 2
    28   12   43 1
    29   13   14 1
    30   13   44 1
    31   14   15 1
    32   14   16 1
    33   15   45 1
    34   16   21 ar
    35   16   17 ar
    36   17   18 ar
    37   17   46 1
    38   18   28 1
    39   18   19 ar
    40   19   20 ar
    41   19   25 1
    42   20   21 ar
    43   20   47 1
    44   21   22 1
    45   22   23 2
    46   22   24 1
    47   25   26 am
    48   25   48 1
    49   26   27 1
    50   26   30 2
    51   27   28 2
    52   27   29 1
@<TRIPOS>MOLECULE
CHEMBL12431
   49    52     0     0     0
SMALL
USER_CHARGES

@<TRIPOS>ATOM
      1 C1          0.1786    1.3095   -0.3777 C.3       1 <0>        -0.0527
      2 N1          0.1816   -0.1542   -0.2528 N.4       1 <0>        -0.3823
      3 C2         -1.1975   -0.6548   -0.3271 C.3       1 <0>         0.0441
      4 C3         -1.7613   -0.3727   -1.6959 C.ar      1 <0>        -0.1561
      5 C4         -2.4200    0.8178   -1.9401 C.ar      1 <0>        -0.0965
      6 C5         -2.9371    1.0766   -3.1957 C.ar      1 <0>        -0.1157
      7 C6         -2.7952    0.1451   -4.2071 C.ar      1 <0>        -0.0880
      8 C7         -2.1357   -1.0450   -3.9631 C.ar      1 <0>        -0.1144
      9 C8         -1.6148   -1.3020   -2.7087 C.ar      1 <0>        -0.0934
     10 C9          0.7716   -0.5343    1.0377 C.3       1 <0>         0.0846
     11 C10         2.2228   -0.1288    1.0654 C.2       1 <0>        -0.2415
     12 C11         3.3158   -0.9131    0.6444 C.2       1 <0>        -0.1846
     13 C12         4.4342   -0.1842    0.8346 C.2       1 <0>         0.0566
     14 N2          4.0719    1.0241    1.3587 N.pl3     1 <0>        -0.3720
     15 C13         2.7128    1.0527    1.4920 C.2       1 <0>         0.0394
     16 C14         4.9476    2.0623    1.6981 C.ar      1 <0>         0.0846
     17 C15         4.9755    2.5434    2.9963 C.ar      1 <0>        -0.1010
     18 C16         5.8448    3.5738    3.3324 C.ar      1 <0>         0.0944
     19 C17         6.6911    4.1214    2.3504 C.ar      1 <0>         0.1996
     20 C18         6.6457    3.6183    1.0414 C.ar      1 <0>        -0.0539
     21 C19         5.7912    2.6030    0.7286 C.ar      1 <0>        -0.0263
     22 N3          5.7544    2.0744   -0.6535 N.pl3     1 <0>         0.0397
     23 O1          6.5642    2.4532   -1.4674 O.2       1 <0>        -0.1565
     24 O2          4.9145    1.2638   -0.9685 O.3       1 <0>        -0.1681
     25 N4          7.5416    5.1215    2.6579 N.2       1 <0>        -0.5991
     26 C20         7.6017    5.6063    3.8698 C.2       1 <0>         0.4275
     27 C21         6.7338    5.0622    4.9274 C.2       1 <0>         0.4776
     28 N5          5.8796    4.0599    4.6265 N.am      1 <0>        -0.6304
     29 O3          6.7856    5.5095    6.0585 O.2       1 <0>        -0.4953
     30 O4          8.4651    6.6116    4.1540 O.3       1 <0>        -0.5838
     31 H1          1.2018    1.6809   -0.3226 H         1 <0>         0.1265
     32 H2         -0.2593    1.5915   -1.3352 H         1 <0>         0.1180
     33 H3         -0.4091    1.7420    0.4320 H         1 <0>         0.1166
     34 H4         -1.2041   -1.7297   -0.1459 H         1 <0>         0.1343
     35 H5         -1.8064   -0.1556    0.4266 H         1 <0>         0.1324
     36 H6         -2.5309    1.5456   -1.1499 H         1 <0>         0.1305
     37 H7         -3.4524    2.0064   -3.3863 H         1 <0>         0.1337
     38 H8         -3.1998    0.3470   -5.1879 H         1 <0>         0.1332
     39 H9         -2.0250   -1.7730   -4.7533 H         1 <0>         0.1343
     40 H10        -1.0963   -2.2302   -2.5191 H         1 <0>         0.1316
     41 H11         0.2381   -0.0304    1.8436 H         1 <0>         0.1256
     42 H12         0.6934   -1.6135    1.1692 H         1 <0>         0.1310
     43 H13         3.2666   -1.9147    0.2435 H         1 <0>         0.1447
     44 H14         5.4422   -0.5011    0.6115 H         1 <0>         0.1604
     45 H15         2.1313    1.8781    1.8755 H         1 <0>         0.1661
     46 H16         4.3233    2.1191    3.7453 H         1 <0>         0.1441
     47 H17         7.2917    4.0329    0.2816 H         1 <0>         0.1676
     48 H18         5.2989    3.6869    5.3081 H         1 <0>         0.4069
     49 H19         0.7256   -0.5546   -1.0023 H         1 <0>         0.4257
@<TRIPOS>BOND
     1    1    2 1
     2    1   31 1
     3    1   32 1
     4    1   33 1
     5    2    3 1
     6    2   10 1
     7    2   49 1
     8    3    4 1
     9    3   34 1
    10    3   35 1
    11    4    9 ar
    12    4    5 ar
    13    5    6 ar
    14    5   36 1
    15    6    7 ar
    16    6   37 1
    17    7    8 ar
    18    7   38 1
    19    8    9 ar
    20    8   39 1
    21    9   40 1
    22   10   11 1
    23   10   41 1
    24   10   42 1
    25   11   15 2
    26   11   12 1
    27   12   13 2
    28   12   43 1
    29   13   14 1
    30   13   44 1
    31   14   15 1
    32   14   16 1
    33   15   45 1
    34   16   21 ar
    35   16   17 ar
    36   17   18 ar
    37   17   46 1
    38   18   28 1
    39   18   19 ar
    40   19   20 ar
    41   19   25 1
    42   20   21 ar
    43   20   47 1
    44   21   22 1
    45   22   23 2
    46   22   24 1
    47   25   26 2
    48   26   27 1
    49   26   30 1
    50   27   28 am
    51   27   29 2
    52   28   48 1
@<TRIPOS>MOLECULE
CHEMBL552793
   36    38     0     0     0
SMALL
USER_CHARGES

@<TRIPOS>ATOM
      1 C1         -0.0166    1.3755    0.0096 C.ar      1 <0>        -0.0138
      2 C2          1.1701    2.0892    0.0021 C.ar      1 <0>        -0.0441
      3 C3          2.3799    1.4261   -0.0135 C.ar      1 <0>        -0.0450
      4 C4          2.4114    0.0358   -0.0217 C.ar      1 <0>         0.1189
      5 C5          1.2153   -0.6836   -0.0142 C.ar      1 <0>         0.1996
      6 C6          0.0021   -0.0041    0.0020 C.ar      1 <0>        -0.1083
      7 C7         -1.2928   -0.7749    0.0108 C.3       1 <0>         0.1706
      8 N1         -1.5763   -1.2381    1.3714 N.pl3     1 <0>        -0.6957
      9 C8         -2.7223   -1.9742    1.6283 C.2       1 <0>         0.3063
     10 N2         -3.1393   -2.4643    2.7763 N.2       1 <0>        -0.5301
     11 C9         -4.2656   -3.1508    2.8558 C.2       1 <0>         0.1656
     12 C10        -4.9637   -3.3240    1.7080 C.2       1 <0>        -0.2834
     13 S1         -3.9221   -2.4522    0.5493 S.3       1 <0>         0.0291
     14 C11        -4.7516   -3.7165    4.1653 C.3       1 <0>        -0.1270
     15 C12        -3.6745   -4.5797    4.7703 C.2       1 <0>         0.5002
     16 O1         -2.6109   -4.7223    4.1916 O.co2     1 <0>        -0.6783
     17 O2         -3.8668   -5.1354    5.8383 O.co2     1 <0>        -0.7070
     18 N3          1.2259   -2.0756   -0.0227 N.am      1 <0>        -0.6328
     19 C13         2.3977   -2.7427   -0.0380 C.2       1 <0>         0.5093
     20 C14         3.6758   -1.9740   -0.0456 C.2       1 <0>         0.5148
     21 N4          3.6359   -0.6262   -0.0379 N.am      1 <0>        -0.6314
     22 O3          4.7418   -2.5562   -0.0593 O.2       1 <0>        -0.4512
     23 O4          2.4122   -3.9573   -0.0451 O.2       1 <0>        -0.4353
     24 N5          1.1406    3.5691    0.0104 N.pl3     1 <0>         0.0373
     25 O5          0.0817    4.1525    0.0236 O.2       1 <0>        -0.1472
     26 O6          2.1752    4.1945    0.0038 O.3       1 <0>        -0.1552
     27 H1         -0.9602    1.9006    0.0260 H         1 <0>         0.1706
     28 H2          3.3028    1.9869   -0.0196 H         1 <0>         0.1708
     29 H3         -2.1024   -0.1291   -0.3292 H         1 <0>         0.0964
     30 H4         -1.2090   -1.6336   -0.6553 H         1 <0>         0.0806
     31 H5         -0.9619   -1.0295    2.0925 H         1 <0>         0.4137
     32 H6         -5.8958   -3.8433    1.5405 H         1 <0>         0.1872
     33 H7         -4.9893   -2.9005    4.8478 H         1 <0>         0.0768
     34 H8         -5.6444   -4.3174    3.9925 H         1 <0>         0.0763
     35 H9          4.4616   -0.1171   -0.0437 H         1 <0>         0.4287
     36 H10         0.3892   -2.5663   -0.0174 H         1 <0>         0.4330
@<TRIPOS>BOND
     1    1    6 ar
     2    1    2 ar
     3    1   27 1
     4    2    3 ar
     5    2   24 1
     6    3    4 ar
     7    3   28 1
     8    4   21 1
     9    4    5 ar
    10    5    6 ar
    11    5   18 1
    12    6    7 1
    13    7    8 1
    14    7   29 1
    15    7   30 1
    16    8    9 1
    17    8   31 1
    18    9   13 1
    19    9   10 2
    20   10   11 1
    21   11   12 2
    22   11   14 1
    23   12   13 1
    24   12   32 1
    25   14   15 1
    26   14   33 1
    27   14   34 1
    28   15   16 2
    29   15   17 1
    30   18   19 am
    31   18   36 1
    32   19   20 1
    33   19   23 2
    34   20   21 am
    35   20   22 2
    36   21   35 1
    37   24   25 2
    38   24   26 1
@<TRIPOS>MOLECULE
CHEMBL294781
   35    38     0     0     0
SMALL
USER_CHARGES

@<TRIPOS>ATOM
      1 C1          1.2939    2.6438   -0.1346 C.3       1 <0>        -0.1501
      2 C2          0.6056    1.2779   -0.1743 C.3       1 <0>        -0.0513
      3 C3          0.9994    0.4814    1.0429 C.2       1 <0>        -0.0304
      4 C4          0.3663    0.4749    2.2401 C.2       1 <0>        -0.0080
      5 N1          1.0162   -0.3538    3.0585 N.2       1 <0>        -0.4346
      6 C5          2.0450   -0.8764    2.4195 C.2       1 <0>         0.1609
      7 N2          2.0545   -0.3713    1.1448 N.pl3     1 <0>        -0.3648
      8 C6          3.0451   -0.7755    0.2649 C.ar      1 <0>         0.0392
      9 C7          3.0809   -0.2769   -1.0306 C.ar      1 <0>        -0.0755
     10 C8          4.0767   -0.6888   -1.9001 C.ar      1 <0>         0.0862
     11 C9          5.0421   -1.6011   -1.4804 C.ar      1 <0>        -0.0004
     12 C10         5.0194   -2.0993   -0.2104 C.ar      1 <0>        -0.0623
     13 C11         4.0203   -1.6958    0.6859 C.ar      1 <0>         0.2239
     14 N3          4.0019   -2.1937    1.9482 N.2       1 <0>        -0.6066
     15 C12         3.0861   -1.8288    2.8125 C.2       1 <0>         0.5127
     16 O1          3.0932   -2.3453    4.0648 O.3       1 <0>        -0.6027
     17 N4          6.1011   -2.0337   -2.4198 N.pl3     1 <0>         0.0308
     18 O2          5.8416   -2.1979   -3.5892 O.2       1 <0>        -0.1399
     19 O3          7.2255   -2.2229   -2.0178 O.3       1 <0>        -0.1545
     20 N5          4.1132   -0.1861   -3.2084 N.pl3     1 <0>        -0.4050
     21 C13         5.1668    0.4564   -3.8055 C.2       1 <0>        -0.0448
     22 C14         4.7760    0.7674   -5.0561 C.2       1 <0>        -0.0177
     23 N6          3.5194    0.3291   -5.2233 N.2       1 <0>        -0.4863
     24 C15         3.1134   -0.2490   -4.1257 C.2       1 <0>         0.1983
     25 H1          2.3751    2.5057   -0.1249 H         1 <0>         0.0517
     26 H2          1.0091    3.2199   -1.0151 H         1 <0>         0.0635
     27 H3          0.9879    3.1789    0.7643 H         1 <0>         0.0637
     28 H4         -0.4755    1.4160   -0.1840 H         1 <0>         0.0928
     29 H5          0.9117    0.7428   -1.0733 H         1 <0>         0.0721
     30 H6         -0.5163    1.0449    2.4901 H         1 <0>         0.1788
     31 H7          2.3336    0.4302   -1.3593 H         1 <0>         0.1561
     32 H8          5.7727   -2.8061    0.1048 H         1 <0>         0.1644
     33 H9          6.1260    0.6722   -3.3585 H         1 <0>         0.1639
     34 H10         5.3712    1.2814   -5.7963 H         1 <0>         0.1717
     35 H11         2.1438   -0.6991   -3.9717 H         1 <0>         0.2041
@<TRIPOS>BOND
     1    1    2 1
     2    1   25 1
     3    1   26 1
     4    1   27 1
     5    2    3 1
     6    2   28 1
     7    2   29 1
     8    3    7 1
     9    3    4 2
    10    4    5 1
    11    4   30 1
    12    5    6 2
    13    6   15 1
    14    6    7 1
    15    7    8 1
    16    8   13 ar
    17    8    9 ar
    18    9   10 ar
    19    9   31 1
    20   10   11 ar
    21   10   20 1
    22   11   12 ar
    23   11   17 1
    24   12   13 ar
    25   12   32 1
    26   13   14 1
    27   14   15 2
    28   15   16 1
    29   17   18 2
    30   17   19 1
    31   20   24 1
    32   20   21 1
    33   21   22 2
    34   21   33 1
    35   22   23 1
    36   22   34 1
    37   23   24 2
    38   24   35 1
@<TRIPOS>MOLECULE
CHEMBL195474
   84    85     0     0     0
SMALL
USER_CHARGES

@<TRIPOS>ATOM
      1 C1         -0.4806    1.5825    0.2803 C.3       1 <0>        -0.1561
      2 C2         -0.3576    0.0586    0.2218 C.3       1 <0>        -0.1059
      3 C3         -1.7540   -0.5639    0.1637 C.3       1 <0>        -0.1405
      4 C4         -1.6329   -2.0649    0.1061 C.2       1 <0>         0.5252
      5 O1         -0.5375   -2.5855    0.1111 O.2       1 <0>        -0.5128
      6 N1         -2.7418   -2.8288    0.0491 N.am      1 <0>        -0.7234
      7 C5         -2.6240   -4.2880   -0.0069 C.3       1 <0>         0.1513
      8 H1         -3.6189   -4.7315   -0.0483 H         1 <0>         0.1065
      9 C6         -1.8348   -4.6884   -1.2549 C.3       1 <0>        -0.0217
     10 C7         -1.7136   -6.1895   -1.3125 C.ar      1 <0>        -0.0639
     11 C8         -2.8474   -6.9775   -1.2456 C.ar      1 <0>        -0.1302
     12 C9         -2.7363   -8.3543   -1.2984 C.ar      1 <0>        -0.1187
     13 C10        -1.4914   -8.9432   -1.4186 C.ar      1 <0>        -0.1275
     14 C11        -0.3577   -8.1552   -1.4864 C.ar      1 <0>        -0.1142
     15 C12        -0.4692   -6.7782   -1.4379 C.ar      1 <0>        -0.1017
     16 C13        -2.5539   -4.1950   -2.4839 C.ar      1 <0>        -0.0739
     17 C14        -3.8955   -4.4779   -2.6599 C.ar      1 <0>        -0.1209
     18 C15        -4.5552   -4.0253   -3.7872 C.ar      1 <0>        -0.1142
     19 C16        -3.8734   -3.2894   -4.7383 C.ar      1 <0>        -0.1137
     20 C17        -2.5321   -3.0058   -4.5618 C.ar      1 <0>        -0.1106
     21 C18        -1.8734   -3.4547   -3.4324 C.ar      1 <0>        -0.1066
     22 C19        -1.9049   -4.7814    1.2221 C.2       1 <0>         0.5084
     23 O2         -1.2188   -4.0196    1.8701 O.2       1 <0>        -0.4906
     24 N2         -2.0240   -6.0693    1.6011 N.am      1 <0>        -0.7378
     25 C20        -1.3249   -6.5490    2.7958 C.3       1 <0>         0.1260
     26 C21        -1.6262   -8.0349    3.0009 C.3       1 <0>        -0.1650
     27 C22        -0.8961   -8.5359    4.2486 C.3       1 <0>        -0.0054
     28 N3         -1.1854   -9.9626    4.4456 N.4       1 <0>        -0.5094
     29 C23        -0.4844  -10.4436    5.6435 C.3       1 <0>        -0.0099
     30 C24        -0.7857  -11.9295    5.8486 C.3       1 <0>        -0.1499
     31 C25        -0.0556  -12.4305    7.0964 C.3       1 <0>        -0.1502
     32 C26        -0.3569  -13.9164    7.3015 C.3       1 <0>        -0.0100
     33 N4          0.3441  -14.3974    8.4994 N.4       1 <0>        -0.5105
     34 C27         0.0548  -15.8241    8.6964 C.3       1 <0>        -0.0049
     35 C28         0.7850  -16.3251    9.9441 C.3       1 <0>        -0.1882
     36 C29         0.4836  -17.8110   10.1492 C.3       1 <0>        -0.0023
     37 N5          1.1847  -18.2920   11.3472 N.4       1 <0>        -0.6387
     38 H2          0.5143    2.0260    0.3217 H         1 <0>         0.0602
     39 H3         -1.0008    1.9394   -0.6086 H         1 <0>         0.0564
     40 H4         -1.0429    1.8678    1.1694 H         1 <0>         0.0548
     41 H5          0.2047   -0.2267   -0.6673 H         1 <0>         0.0681
     42 H6          0.1626   -0.2983    1.1107 H         1 <0>         0.0677
     43 H7         -2.3163   -0.2786    1.0528 H         1 <0>         0.0924
     44 H8         -2.2742   -0.2070   -0.7252 H         1 <0>         0.0944
     45 H9         -3.6179   -2.4124    0.0451 H         1 <0>         0.4089
     46 H10        -0.8399   -4.2450   -1.2135 H         1 <0>         0.1173
     47 H11        -3.8200   -6.5174   -1.1518 H         1 <0>         0.1250
     48 H12        -3.6221   -8.9700   -1.2455 H         1 <0>         0.1237
     49 H13        -1.4046  -10.0189   -1.4591 H         1 <0>         0.1196
     50 H14         0.6149   -8.6152   -1.5799 H         1 <0>         0.1225
     51 H15         0.4162   -6.1624   -1.4946 H         1 <0>         0.1241
     52 H16        -4.4282   -5.0528   -1.9168 H         1 <0>         0.1153
     53 H17        -5.6032   -4.2468   -3.9251 H         1 <0>         0.1243
     54 H18        -4.3887   -2.9364   -5.6194 H         1 <0>         0.1260
     55 H19        -1.9993   -2.4311   -5.3050 H         1 <0>         0.1262
     56 H20        -0.8263   -3.2300   -3.2928 H         1 <0>         0.1205
     57 H21        -2.5727   -6.6786    1.0828 H         1 <0>         0.4011
     58 H22        -0.2513   -6.4101    2.6688 H         1 <0>         0.0769
     59 H23        -1.6637   -5.9861    3.6656 H         1 <0>         0.0758
     60 H24        -2.6999   -8.1738    3.1279 H         1 <0>         0.0960
     61 H25        -1.2875   -8.5978    2.1311 H         1 <0>         0.0980
     62 H26         0.1776   -8.3971    4.1216 H         1 <0>         0.1394
     63 H27        -1.2349   -7.9730    5.1184 H         1 <0>         0.1391
     64 H28        -2.1793  -10.0911    4.5631 H         1 <0>         0.4312
     65 H29         0.5893  -10.3047    5.5165 H         1 <0>         0.1374
     66 H30        -0.8231   -9.8807    6.5133 H         1 <0>         0.1373
     67 H31        -1.8594  -12.0684    5.9756 H         1 <0>         0.1009
     68 H32        -0.4469  -12.4924    4.9789 H         1 <0>         0.1010
     69 H33         1.0181  -12.2917    6.9694 H         1 <0>         0.1018
     70 H34        -0.3943  -11.8676    7.9661 H         1 <0>         0.1017
     71 H35        -1.4305  -14.0553    7.4285 H         1 <0>         0.1402
     72 H36        -0.0181  -14.4793    6.4317 H         1 <0>         0.1403
     73 H37         1.3380  -14.2689    8.3819 H         1 <0>         0.4345
     74 H38        -1.0188  -15.9630    8.8234 H         1 <0>         0.1456
     75 H39         0.3936  -16.3870    7.8266 H         1 <0>         0.1457
     76 H40         1.8586  -16.1863    9.8171 H         1 <0>         0.1138
     77 H41         0.4462  -15.7622   10.8139 H         1 <0>         0.1137
     78 H42        -0.5900  -17.9499   10.2762 H         1 <0>         0.1458
     79 H43         0.8224  -18.3739    9.2794 H         1 <0>         0.1458
     80 H44         0.9859  -19.2720   11.4824 H         1 <0>         0.4533
     81 H45         2.1785  -18.1635   11.2296 H         1 <0>         0.4411
     82 H46         0.8711  -17.7710   12.1523 H         1 <0>         0.4411
     83 H47        -0.8718  -10.4836    3.6404 H         1 <0>         0.4316
     84 H48         0.0305  -13.8764    9.3046 H         1 <0>         0.4344
@<TRIPOS>BOND
     1    1    2 1
     2    1   38 1
     3    1   39 1
     4    1   40 1
     5    2    3 1
     6    2   41 1
     7    2   42 1
     8    3    4 1
     9    3   43 1
    10    3   44 1
    11    4    5 2
    12    4    6 am
    13    6    7 1
    14    6   45 1
    15    7    8 1
    16    7    9 1
    17    7   22 1
    18    9   10 1
    19    9   16 1
    20    9   46 1
    21   10   15 ar
    22   10   11 ar
    23   11   12 ar
    24   11   47 1
    25   12   13 ar
    26   12   48 1
    27   13   14 ar
    28   13   49 1
    29   14   15 ar
    30   14   50 1
    31   15   51 1
    32   16   21 ar
    33   16   17 ar
    34   17   18 ar
    35   17   52 1
    36   18   19 ar
    37   18   53 1
    38   19   20 ar
    39   19   54 1
    40   20   21 ar
    41   20   55 1
    42   21   56 1
    43   22   23 2
    44   22   24 am
    45   24   25 1
    46   24   57 1
    47   25   26 1
    48   25   58 1
    49   25   59 1
    50   26   27 1
    51   26   60 1
    52   26   61 1
    53   27   28 1
    54   27   62 1
    55   27   63 1
    56   28   29 1
    57   28   64 1
    58   28   83 1
    59   29   30 1
    60   29   65 1
    61   29   66 1
    62   30   31 1
    63   30   67 1
    64   30   68 1
    65   31   32 1
    66   31   69 1
    67   31   70 1
    68   32   33 1
    69   32   71 1
    70   32   72 1
    71   33   34 1
    72   33   73 1
    73   33   84 1
    74   34   35 1
    75   34   74 1
    76   34   75 1
    77   35   36 1
    78   35   76 1
    79   35   77 1
    80   36   37 1
    81   36   78 1
    82   36   79 1
    83   37   80 1
    84   37   81 1
    85   37   82 1
@<TRIPOS>MOLECULE
CHEMBL195474
   83    84     0     0     0
SMALL
USER_CHARGES

@<TRIPOS>ATOM
      1 C1          2.2575    0.4555   -1.4001 C.3       1 <0>        -0.1556
      2 C2          1.6830   -0.9393   -1.1443 C.3       1 <0>        -0.1062
      3 C3          0.1737   -0.8352   -0.9161 C.3       1 <0>        -0.1400
      4 C4         -0.4081   -2.2172   -0.7655 C.2       1 <0>         0.5295
      5 O1          0.3236   -3.1843   -0.7450 O.2       1 <0>        -0.5175
      6 N1         -1.7415   -2.3786   -0.6534 N.am      1 <0>        -0.7223
      7 C5         -2.3001   -3.7103   -0.4074 C.3       1 <0>         0.1506
      8 H1         -3.3886   -3.6542   -0.4116 H         1 <0>         0.1064
      9 C6         -1.8346   -4.6694   -1.5049 C.3       1 <0>        -0.0219
     10 C7         -2.5237   -5.9989   -1.3357 C.ar      1 <0>        -0.0693
     11 C8         -3.9020   -6.0567   -1.2478 C.ar      1 <0>        -0.1280
     12 C9         -4.5342   -7.2762   -1.0926 C.ar      1 <0>        -0.1171
     13 C10        -3.7880   -8.4379   -1.0259 C.ar      1 <0>        -0.1251
     14 C11        -2.4097   -8.3802   -1.1147 C.ar      1 <0>        -0.1156
     15 C12        -1.7778   -7.1611   -1.2742 C.ar      1 <0>        -0.1033
     16 C13        -2.1784   -4.0934   -2.8543 C.ar      1 <0>        -0.0698
     17 C14        -1.2032   -3.9838   -3.8279 C.ar      1 <0>        -0.1049
     18 C15        -1.5187   -3.4554   -5.0658 C.ar      1 <0>        -0.1125
     19 C16        -2.8094   -3.0372   -5.3302 C.ar      1 <0>        -0.1152
     20 C17        -3.7848   -3.1477   -4.3569 C.ar      1 <0>        -0.1155
     21 C18        -3.4704   -3.6800   -3.1205 C.ar      1 <0>        -0.1198
     22 C19        -1.8282   -4.2133    0.9326 C.2       1 <0>         0.5095
     23 O2         -0.8433   -3.7297    1.4492 O.2       1 <0>        -0.4981
     24 N2         -2.5007   -5.2005    1.5567 N.am      1 <0>        -0.7358
     25 C20        -2.0420   -5.6894    2.8593 C.3       1 <0>         0.1253
     26 C21        -2.9742   -6.8018    3.3437 C.3       1 <0>        -0.1649
     27 C22        -2.4951   -7.3124    4.7041 C.3       1 <0>        -0.0052
     28 N3         -3.3902   -8.3804    5.1691 N.4       1 <0>        -0.5093
     29 C23        -2.9302   -8.8706    6.4753 C.3       1 <0>        -0.0099
     30 C24        -3.8624   -9.9830    6.9596 C.3       1 <0>        -0.1490
     31 C25        -3.3833  -10.4936    8.3200 C.3       1 <0>        -0.1498
     32 C26        -4.3155  -11.6059    8.8044 C.3       1 <0>        -0.0094
     33 N4         -3.8556  -12.0962   10.1105 N.4       1 <0>        -0.5095
     34 C27        -4.7506  -13.1642   10.5756 C.3       1 <0>        -0.0075
     35 C28        -4.2715  -13.6748   11.9360 C.3       1 <0>        -0.1522
     36 C29        -5.2037  -14.7871   12.4203 C.3       1 <0>         0.0630
     37 N5         -4.7438  -15.2774   13.7265 N.3       1 <0>        -0.8529
     38 H2          3.3327    0.3813   -1.5626 H         1 <0>         0.0599
     39 H3          1.7854    0.8866   -2.2829 H         1 <0>         0.0557
     40 H4          2.0636    1.0922   -0.5369 H         1 <0>         0.0548
     41 H5          1.8769   -1.5760   -2.0075 H         1 <0>         0.0682
     42 H6          2.1550   -1.3704   -0.2615 H         1 <0>         0.0682
     43 H7         -0.0181   -0.2596   -0.0106 H         1 <0>         0.0938
     44 H8         -0.2891   -0.3371   -1.7681 H         1 <0>         0.0920
     45 H9         -2.3313   -1.6129   -0.7357 H         1 <0>         0.4083
     46 H10        -0.7557   -4.8076   -1.4330 H         1 <0>         0.1218
     47 H11        -4.4850   -5.1490   -1.3000 H         1 <0>         0.1244
     48 H12        -5.6110   -7.3213   -1.0232 H         1 <0>         0.1243
     49 H13        -4.2818   -9.3906   -0.9039 H         1 <0>         0.1208
     50 H14        -1.8267   -9.2878   -1.0622 H         1 <0>         0.1224
     51 H15        -0.7012   -7.1164   -1.3473 H         1 <0>         0.1232
     52 H16        -0.1948   -4.3105   -3.6213 H         1 <0>         0.1210
     53 H17        -0.7566   -3.3691   -5.8261 H         1 <0>         0.1248
     54 H18        -3.0557   -2.6238   -6.2971 H         1 <0>         0.1246
     55 H19        -4.7932   -2.8206   -4.5634 H         1 <0>         0.1234
     56 H20        -4.2333   -3.7697   -2.3614 H         1 <0>         0.1154
     57 H21        -3.2884   -5.5873    1.1435 H         1 <0>         0.4019
     58 H22        -1.0288   -6.0801    2.7645 H         1 <0>         0.0776
     59 H23        -2.0497   -4.8701    3.5782 H         1 <0>         0.0768
     60 H24        -3.9874   -6.4112    3.4385 H         1 <0>         0.0960
     61 H25        -2.9664   -7.6211    2.6248 H         1 <0>         0.0975
     62 H26        -1.4819   -7.7030    4.6093 H         1 <0>         0.1389
     63 H27        -2.5029   -6.4931    5.4230 H         1 <0>         0.1387
     64 H28        -4.3280   -8.0188    5.2569 H         1 <0>         0.4309
     65 H29        -1.9170   -9.2612    6.3805 H         1 <0>         0.1371
     66 H30        -2.9380   -8.0513    7.1942 H         1 <0>         0.1372
     67 H31        -4.8756   -9.5923    7.0544 H         1 <0>         0.1000
     68 H32        -3.8546  -10.8023    6.2407 H         1 <0>         0.0998
     69 H33        -2.3701  -10.8842    8.2252 H         1 <0>         0.1000
     70 H34        -3.3911   -9.6743    9.0389 H         1 <0>         0.1004
     71 H35        -5.3287  -11.2153    8.8992 H         1 <0>         0.1363
     72 H36        -4.3078  -12.4252    8.0855 H         1 <0>         0.1357
     73 H37        -2.9177  -12.4578   10.0228 H         1 <0>         0.4306
     74 H38        -5.7638  -12.7735   10.6704 H         1 <0>         0.1358
     75 H39        -4.7428  -13.9835    9.8567 H         1 <0>         0.1335
     76 H40        -3.2584  -14.0654   11.8412 H         1 <0>         0.0869
     77 H41        -4.2793  -12.8555   12.6549 H         1 <0>         0.0979
     78 H42        -6.2169  -14.3965   12.5151 H         1 <0>         0.0834
     79 H43        -5.1960  -15.6064   11.7014 H         1 <0>         0.0384
     80 H44        -5.3436  -16.0133   14.0682 H         1 <0>         0.3609
     81 H45        -3.7841  -15.5855   13.6795 H         1 <0>         0.3469
     82 H46        -3.3830   -9.1388    4.5037 H         1 <0>         0.4312
     83 H47        -3.8628  -11.3378   10.7760 H         1 <0>         0.4317
@<TRIPOS>BOND
     1    1    2 1
     2    1   38 1
     3    1   39 1
     4    1   40 1
     5    2    3 1
     6    2   41 1
     7    2   42 1
     8    3    4 1
     9    3   43 1
    10    3   44 1
    11    4    5 2
    12    4    6 am
    13    6    7 1
    14    6   45 1
    15    7    8 1
    16    7    9 1
    17    7   22 1
    18    9   10 1
    19    9   16 1
    20    9   46 1
    21   10   15 ar
    22   10   11 ar
    23   11   12 ar
    24   11   47 1
    25   12   13 ar
    26   12   48 1
    27   13   14 ar
    28   13   49 1
    29   14   15 ar
    30   14   50 1
    31   15   51 1
    32   16   21 ar
    33   16   17 ar
    34   17   18 ar
    35   17   52 1
    36   18   19 ar
    37   18   53 1
    38   19   20 ar
    39   19   54 1
    40   20   21 ar
    41   20   55 1
    42   21   56 1
    43   22   23 2
    44   22   24 am
    45   24   25 1
    46   24   57 1
    47   25   26 1
    48   25   58 1
    49   25   59 1
    50   26   27 1
    51   26   60 1
    52   26   61 1
    53   27   28 1
    54   27   62 1
    55   27   63 1
    56   28   29 1
    57   28   64 1
    58   28   82 1
    59   29   30 1
    60   29   65 1
    61   29   66 1
    62   30   31 1
    63   30   67 1
    64   30   68 1
    65   31   32 1
    66   31   69 1
    67   31   70 1
    68   32   33 1
    69   32   71 1
    70   32   72 1
    71   33   34 1
    72   33   73 1
    73   33   83 1
    74   34   35 1
    75   34   74 1
    76   34   75 1
    77   35   36 1
    78   35   76 1
    79   35   77 1
    80   36   37 1
    81   36   78 1
    82   36   79 1
    83   37   80 1
    84   37   81 1
@<TRIPOS>MOLECULE
CHEMBL81874
   24    26     0     0     0
SMALL
USER_CHARGES

@<TRIPOS>ATOM
      1 C1         -0.0167    1.3802    0.0096 C.ar      1 <0>        -0.0569
      2 C2          1.1661    2.0912    0.0022 C.ar      1 <0>        -0.0715
      3 C3          2.3819    1.4180   -0.0131 C.ar      1 <0>         0.1610
      4 C4          2.4015    0.0223   -0.0208 C.ar      1 <0>         0.1582
      5 C5          1.2032   -0.6830   -0.0132 C.ar      1 <0>        -0.0708
      6 C6          0.0021   -0.0041    0.0020 C.ar      1 <0>        -0.0217
      7 N1         -1.2713   -0.7587    0.0106 N.pl3     1 <0>         0.0355
      8 O1         -2.3250   -0.1661    0.0243 O.2       1 <0>        -0.1472
      9 O2         -1.2576   -1.9676    0.0040 O.3       1 <0>        -0.1540
     10 N2          3.6087   -0.6705   -0.0366 N.am      1 <0>        -0.6375
     11 C7          4.7779    0.0015   -0.0442 C.2       1 <0>         0.6100
     12 C8          4.7659    1.4759   -0.0356 C.2       1 <0>         0.1316
     13 N3          3.5743    2.1401   -0.0211 N.pl3     1 <0>        -0.2577
     14 N4          3.8242    3.4042   -0.0171 N.2       1 <0>        -0.2500
     15 C9          5.1328    3.5821   -0.0290 C.2       1 <0>         0.1808
     16 N5          5.7223    2.3799   -0.0398 N.2       1 <0>        -0.3822
     17 C10         5.8277    4.8854   -0.0297 C.2       1 <0>         0.5742
     18 O3          5.1810    5.9232   -0.0186 O.co2     1 <0>        -0.6489
     19 O4          7.0498    4.9267   -0.0414 O.co2     1 <0>        -0.6406
     20 O5          5.8331   -0.6034   -0.0575 O.2       1 <0>        -0.4640
     21 H1         -0.9602    1.9055    0.0260 H         1 <0>         0.1701
     22 H2          1.1469    3.1710    0.0078 H         1 <0>         0.1751
     23 H3          1.2126   -1.7630   -0.0198 H         1 <0>         0.1733
     24 H4          3.6090   -1.6405   -0.0418 H         1 <0>         0.4334
@<TRIPOS>BOND
     1    1    6 ar
     2    1    2 ar
     3    1   21 1
     4    2    3 ar
     5    2   22 1
     6    3   13 1
     7    3    4 ar
     8    4    5 ar
     9    4   10 1
    10    5    6 ar
    11    5   23 1
    12    6    7 1
    13    7    8 2
    14    7    9 1
    15   10   11 am
    16   10   24 1
    17   11   12 1
    18   11   20 2
    19   12   16 2
    20   12   13 1
    21   13   14 1
    22   14   15 2
    23   15   16 1
    24   15   17 1
    25   17   18 2
    26   17   19 1
@<TRIPOS>MOLECULE
CHEMBL441460
   28    29     0     0     0
SMALL
USER_CHARGES

@<TRIPOS>ATOM
      1 C1         -0.0178    1.4608    0.0101 C.3       1 <0>         0.0971
      2 N1          0.0021   -0.0041    0.0020 N.pl3     1 <0>        -0.3841
      3 C2          0.0081   -0.8035   -1.0815 C.2       1 <0>         0.2691
      4 N2          0.0276   -2.0445   -0.6763 N.2       1 <0>        -0.4834
      5 C3          0.0346   -2.0844    0.6645 C.2       1 <0>         0.2876
      6 N3          0.0247   -0.8500    1.1228 N.2       1 <0>        -0.2924
      7 C4          0.0551   -3.3107    1.4905 C.2       1 <0>         0.1340
      8 C5          0.0704   -4.5858    1.0168 C.2       1 <0>        -0.1687
      9 C6          0.0874   -5.4624    2.1165 C.2       1 <0>         0.5432
     10 N4          0.0820   -4.7084    3.2353 N.am      1 <0>        -0.5776
     11 O1          0.0674   -3.3504    2.8330 O.3       1 <0>        -0.0465
     12 O2          0.1035   -6.6821    2.0677 O.2       1 <0>        -0.4882
     13 C7          0.0695   -4.9894   -0.4352 C.3       1 <0>        -0.0267
     14 C8          1.5079   -5.2274   -0.8993 C.3       1 <0>         0.0360
     15 C9          1.5178   -5.5107   -2.3794 C.2       1 <0>         0.4682
     16 O3          1.2633   -4.6201   -3.1722 O.co2     1 <0>        -0.6931
     17 O4          1.7803   -6.6304   -2.7840 O.co2     1 <0>        -0.7032
     18 N5          2.0718   -6.3756   -0.1772 N.3       1 <0>        -0.8270
     19 H1          1.0048    1.8381    0.0023 H         1 <0>         0.0812
     20 H2         -0.5450    1.8219   -0.8730 H         1 <0>         0.0963
     21 H3         -0.5280    1.8123    0.9069 H         1 <0>         0.0913
     22 H4         -0.0014   -0.4744   -2.1101 H         1 <0>         0.2301
     23 H5         -0.5080   -5.9057   -0.5572 H         1 <0>         0.0683
     24 H6         -0.3784   -4.1953   -1.0327 H         1 <0>         0.1062
     25 H7          2.1070   -4.3400   -0.6952 H         1 <0>         0.0653
     26 H8          1.5335   -7.2114   -0.3502 H         1 <0>         0.3391
     27 H9          3.0417   -6.5138   -0.4186 H         1 <0>         0.3258
     28 H10         0.0903   -5.0363    4.1482 H         1 <0>         0.4523
@<TRIPOS>BOND
     1    1    2 1
     2    1   19 1
     3    1   20 1
     4    1   21 1
     5    2    6 1
     6    2    3 1
     7    3    4 2
     8    3   22 1
     9    4    5 1
    10    5    6 2
    11    5    7 1
    12    7    8 2
    13    7   11 1
    14    8    9 1
    15    8   13 1
    16    9   10 am
    17    9   12 2
    18   10   11 1
    19   10   28 1
    20   13   14 1
    21   13   23 1
    22   13   24 1
    23   14   15 1
    24   14   18 1
    25   14   25 1
    26   15   16 2
    27   15   17 1
    28   18   26 1
    29   18   27 1
@<TRIPOS>MOLECULE
CHEMBL441460
   28    29     0     0     0
SMALL
USER_CHARGES

@<TRIPOS>ATOM
      1 C1         -0.0178    1.4608    0.0101 C.3       1 <0>         0.0956
      2 N1          0.0021   -0.0041    0.0020 N.pl3     1 <0>        -0.3793
      3 C2          0.0081   -0.8035   -1.0815 C.2       1 <0>         0.2723
      4 N2          0.0276   -2.0445   -0.6763 N.2       1 <0>        -0.4949
      5 C3          0.0346   -2.0844    0.6645 C.2       1 <0>         0.2845
      6 N3          0.0247   -0.8500    1.1228 N.2       1 <0>        -0.2851
      7 C4          0.0551   -3.3107    1.4905 C.2       1 <0>         0.1443
      8 C5          0.0704   -4.5858    1.0168 C.2       1 <0>        -0.1939
      9 C6          0.0874   -5.4624    2.1165 C.2       1 <0>         0.5347
     10 N4          0.0820   -4.7084    3.2353 N.am      1 <0>        -0.5719
     11 O1          0.0674   -3.3504    2.8330 O.3       1 <0>        -0.0411
     12 O2          0.1035   -6.6821    2.0677 O.2       1 <0>        -0.4947
     13 C7          0.0695   -4.9894   -0.4352 C.3       1 <0>        -0.0717
     14 C8          1.5079   -5.2274   -0.8993 C.3       1 <0>         0.0397
     15 C9          1.4997   -5.7487   -2.3132 C.2       1 <0>         0.5088
     16 O3          1.5424   -4.9699   -3.2503 O.co2     1 <0>        -0.6879
     17 O4          1.4505   -6.9492   -2.5201 O.co2     1 <0>        -0.7011
     18 N5          2.2545   -3.9633   -0.8477 N.3       1 <0>        -0.8205
     19 H1          1.0048    1.8381    0.0023 H         1 <0>         0.0838
     20 H2         -0.5450    1.8219   -0.8730 H         1 <0>         0.0979
     21 H3         -0.5280    1.8123    0.9069 H         1 <0>         0.0925
     22 H4         -0.0014   -0.4744   -2.1101 H         1 <0>         0.2326
     23 H5         -0.5080   -5.9057   -0.5572 H         1 <0>         0.0803
     24 H6         -0.3784   -4.1953   -1.0327 H         1 <0>         0.1002
     25 H7          1.9845   -5.9578   -0.2455 H         1 <0>         0.0666
     26 H8          1.8322   -3.2692   -1.4460 H         1 <0>         0.3496
     27 H9          2.3296   -3.6261    0.1003 H         1 <0>         0.3032
     28 H10         0.0903   -5.0363    4.1482 H         1 <0>         0.4555
@<TRIPOS>BOND
     1    1    2 1
     2    1   19 1
     3    1   20 1
     4    1   21 1
     5    2    6 1
     6    2    3 1
     7    3    4 2
     8    3   22 1
     9    4    5 1
    10    5    6 2
    11    5    7 1
    12    7    8 2
    13    7   11 1
    14    8    9 1
    15    8   13 1
    16    9   10 am
    17    9   12 2
    18   10   11 1
    19   10   28 1
    20   13   14 1
    21   13   23 1
    22   13   24 1
    23   14   15 1
    24   14   18 1
    25   14   25 1
    26   15   16 2
    27   15   17 1
    28   18   26 1
    29   18   27 1
@<TRIPOS>MOLECULE
CHEMBL105076
   49    50     0     0     0
SMALL
USER_CHARGES

@<TRIPOS>ATOM
      1 C1          0.9332   -0.7690   -0.9183 C.3       1 <0>        -0.1390
      2 C2          0.1089   -0.0241    0.1336 C.3       1 <0>        -0.5942
      3 C3          0.1933    1.4816   -0.1247 C.3       1 <0>        -0.1442
      4 S1         -1.6218   -0.5583    0.0351 S.o2      1 <0>         2.6109
      5 O1         -2.3602   -0.0295    1.1280 O.2       1 <0>        -0.9543
      6 O2         -2.1008   -0.4232   -1.2959 O.2       1 <0>        -0.9541
      7 N1         -1.5790   -2.1916    0.3050 N.pl3     1 <0>        -1.1172
      8 C4         -1.1606   -2.7076    1.6107 C.3       1 <0>         0.1196
      9 C5         -1.5666   -4.1777    1.7321 C.3       1 <0>        -0.0519
     10 C6         -3.0926   -4.2878    1.7236 C.3       1 <0>        -0.1486
     11 C7         -1.0295   -4.7423    3.0220 C.ar      1 <0>        -0.0951
     12 C8         -1.4165   -4.1920    4.2301 C.ar      1 <0>        -0.0926
     13 C9         -0.9262   -4.7070    5.4140 C.ar      1 <0>        -0.1165
     14 C10        -0.0437   -5.7793    5.3903 C.ar      1 <0>         0.1460
     15 C11         0.3427   -6.3300    4.1752 C.ar      1 <0>        -0.1429
     16 C12        -0.1551   -5.8133    2.9952 C.ar      1 <0>        -0.0917
     17 N2          0.4551   -6.3029    6.5873 N.am      1 <0>        -0.6712
     18 C13        -0.3138   -6.3049    7.6942 C.2       1 <0>         0.5602
     19 O3         -1.4719   -5.9408    7.6304 O.2       1 <0>        -0.5125
     20 C14         0.2510   -6.7497    8.9857 C.ar      1 <0>        -0.1402
     21 C15         1.5821   -7.1628    9.0635 C.ar      1 <0>        -0.0862
     22 C16         2.1032   -7.5763   10.2721 C.ar      1 <0>        -0.1266
     23 C17         1.3094   -7.5825   11.4054 C.ar      1 <0>        -0.0892
     24 C18        -0.0107   -7.1743   11.3351 C.ar      1 <0>        -0.1261
     25 C19        -0.5426   -6.7529   10.1340 C.ar      1 <0>        -0.0563
     26 H1          1.9732   -0.4479   -0.8592 H         1 <0>         0.0771
     27 H2          0.8731   -1.8416   -0.7343 H         1 <0>         0.0704
     28 H3          0.5407   -0.5480   -1.9109 H         1 <0>         0.0749
     29 H4          0.5015   -0.2450    1.1261 H         1 <0>         0.1342
     30 H5          1.2203    1.8177    0.0181 H         1 <0>         0.0827
     31 H6         -0.1192    1.6929   -1.1473 H         1 <0>         0.0742
     32 H7         -0.4609    2.0069    0.5711 H         1 <0>         0.0712
     33 H8         -1.8310   -2.8067   -0.4014 H         1 <0>         0.4191
     34 H9         -0.0783   -2.6205    1.7059 H         1 <0>         0.0677
     35 H10        -1.6424   -2.1312    2.4005 H         1 <0>         0.0838
     36 H11        -1.1571   -4.7383    0.8918 H         1 <0>         0.0877
     37 H12        -3.4811   -3.8794    0.7906 H         1 <0>         0.0619
     38 H13        -3.3818   -5.3351    1.8100 H         1 <0>         0.0610
     39 H14        -3.5020   -3.7272    2.5639 H         1 <0>         0.0619
     40 H15        -2.1028   -3.3582    4.2478 H         1 <0>         0.1285
     41 H16        -1.2283   -4.2763    6.3572 H         1 <0>         0.1353
     42 H17         1.0291   -7.1636    4.1534 H         1 <0>         0.1263
     43 H18         0.1418   -6.2437    2.0502 H         1 <0>         0.1275
     44 H19         1.3545   -6.6647    6.6209 H         1 <0>         0.4103
     45 H20         2.2025   -7.1591    8.1795 H         1 <0>         0.1254
     46 H21         3.1329   -7.8962   10.3337 H         1 <0>         0.1315
     47 H22         1.7220   -7.9079   12.3489 H         1 <0>         0.1301
     48 H23        -0.6250   -7.1819   12.2234 H         1 <0>         0.1330
     49 H24        -1.5720   -6.4303   10.0814 H         1 <0>         0.1380
@<TRIPOS>BOND
     1    1    2 1
     2    1   26 1
     3    1   27 1
     4    1   28 1
     5    2    3 1
     6    2    4 1
     7    2   29 1
     8    3   30 1
     9    3   31 1
    10    3   32 1
    11    4    5 2
    12    4    6 2
    13    4    7 1
    14    7    8 1
    15    7   33 1
    16    8    9 1
    17    8   34 1
    18    8   35 1
    19    9   10 1
    20    9   11 1
    21    9   36 1
    22   10   37 1
    23   10   38 1
    24   10   39 1
    25   11   16 ar
    26   11   12 ar
    27   12   13 ar
    28   12   40 1
    29   13   14 ar
    30   13   41 1
    31   14   15 ar
    32   14   17 1
    33   15   16 ar
    34   15   42 1
    35   16   43 1
    36   17   18 am
    37   17   44 1
    38   18   19 2
    39   18   20 1
    40   20   25 ar
    41   20   21 ar
    42   21   22 ar
    43   21   45 1
    44   22   23 ar
    45   22   46 1
    46   23   24 ar
    47   23   47 1
    48   24   25 ar
    49   24   48 1
    50   25   49 1
@<TRIPOS>MOLECULE
CHEMBL105076
   49    50     0     0     0
SMALL
USER_CHARGES

@<TRIPOS>ATOM
      1 C1          0.8934   -0.8460   -0.9822 C.3       1 <0>        -0.1390
      2 C2          0.0714   -0.0791    0.0557 C.3       1 <0>        -0.5941
      3 C3          0.1568    1.4209   -0.2334 C.3       1 <0>        -0.1440
      4 S1         -1.6599   -0.6137   -0.0291 S.o2      1 <0>         2.6108
      5 O1         -2.3949   -0.0665    1.0570 O.2       1 <0>        -0.9547
      6 O2         -2.1426   -0.5001   -1.3607 O.2       1 <0>        -0.9544
      7 N1         -1.6174   -2.2424    0.2675 N.pl3     1 <0>        -1.1178
      8 C4         -1.1988   -2.7370    1.5814 C.3       1 <0>         0.1196
      9 C5         -1.5848   -4.2112    1.7181 C.3       1 <0>        -0.0540
     10 C6         -0.7962   -5.0411    0.7031 C.3       1 <0>        -0.1474
     11 C7         -1.2659   -4.6868    3.1120 C.ar      1 <0>        -0.0949
     12 C8          0.0345   -4.6314    3.5792 C.ar      1 <0>        -0.0932
     13 C9          0.3301   -5.0665    4.8562 C.ar      1 <0>        -0.1180
     14 C10        -0.6803   -5.5597    5.6715 C.ar      1 <0>         0.1462
     15 C11        -1.9854   -5.6136    5.1994 C.ar      1 <0>        -0.1421
     16 C12        -2.2751   -5.1724    3.9231 C.ar      1 <0>        -0.0903
     17 N2         -0.3843   -6.0015    6.9649 N.am      1 <0>        -0.6707
     18 C13         0.6023   -5.4121    7.6691 C.2       1 <0>         0.5607
     19 O3          1.1696   -4.4353    7.2200 O.2       1 <0>        -0.5133
     20 C14         0.9944   -5.9535    8.9874 C.ar      1 <0>        -0.1404
     21 C15         0.3490   -7.0785    9.5034 C.ar      1 <0>        -0.0860
     22 C16         0.7201   -7.5789   10.7342 C.ar      1 <0>        -0.1264
     23 C17         1.7295   -6.9680   11.4571 C.ar      1 <0>        -0.0891
     24 C18         2.3733   -5.8526   10.9514 C.ar      1 <0>        -0.1262
     25 C19         2.0158   -5.3454    9.7193 C.ar      1 <0>        -0.0564
     26 H1          1.9337   -0.5248   -0.9313 H         1 <0>         0.0774
     27 H2          0.8326   -1.9147   -0.7763 H         1 <0>         0.0704
     28 H3          0.4994   -0.6450   -1.9784 H         1 <0>         0.0748
     29 H4          0.4654   -0.2802    1.0519 H         1 <0>         0.1346
     30 H5          1.1841    1.7591   -0.0981 H         1 <0>         0.0829
     31 H6         -0.1563    1.6115   -1.2599 H         1 <0>         0.0742
     32 H7         -0.4967    1.9607    0.4520 H         1 <0>         0.0710
     33 H8         -1.8697   -2.8689   -0.4288 H         1 <0>         0.4185
     34 H9         -0.1183   -2.6336    1.6812 H         1 <0>         0.0676
     35 H10        -1.6929   -2.1582    2.3618 H         1 <0>         0.0844
     36 H11        -2.6523   -4.3262    1.5303 H         1 <0>         0.0899
     37 H12        -1.0711   -6.0913    0.8004 H         1 <0>         0.0624
     38 H13        -1.0269   -4.6971   -0.3052 H         1 <0>         0.0604
     39 H14         0.2714   -4.9261    0.8909 H         1 <0>         0.0608
     40 H15         0.8198   -4.2478    2.9447 H         1 <0>         0.1263
     41 H16         1.3460   -5.0237    5.2203 H         1 <0>         0.1357
     42 H17        -2.7733   -5.9969    5.8308 H         1 <0>         0.1269
     43 H18        -3.2904   -5.2102    3.5568 H         1 <0>         0.1284
     44 H19        -0.8890   -6.7321    7.3553 H         1 <0>         0.4106
     45 H20        -0.4395   -7.5558    8.9405 H         1 <0>         0.1256
     46 H21         0.2216   -8.4493   11.1346 H         1 <0>         0.1316
     47 H22         2.0158   -7.3634   12.4205 H         1 <0>         0.1302
     48 H23         3.1601   -5.3803   11.5208 H         1 <0>         0.1329
     49 H24         2.5222   -4.4774    9.3237 H         1 <0>         0.1379
@<TRIPOS>BOND
     1    1    2 1
     2    1   26 1
     3    1   27 1
     4    1   28 1
     5    2    3 1
     6    2    4 1
     7    2   29 1
     8    3   30 1
     9    3   31 1
    10    3   32 1
    11    4    5 2
    12    4    6 2
    13    4    7 1
    14    7    8 1
    15    7   33 1
    16    8    9 1
    17    8   34 1
    18    8   35 1
    19    9   10 1
    20    9   11 1
    21    9   36 1
    22   10   37 1
    23   10   38 1
    24   10   39 1
    25   11   16 ar
    26   11   12 ar
    27   12   13 ar
    28   12   40 1
    29   13   14 ar
    30   13   41 1
    31   14   15 ar
    32   14   17 1
    33   15   16 ar
    34   15   42 1
    35   16   43 1
    36   17   18 am
    37   17   44 1
    38   18   19 2
    39   18   20 1
    40   20   25 ar
    41   20   21 ar
    42   21   22 ar
    43   21   45 1
    44   22   23 ar
    45   22   46 1
    46   23   24 ar
    47   23   47 1
    48   24   25 ar
    49   24   48 1
    50   25   49 1
@<TRIPOS>MOLECULE
CHEMBL8829
   32    35     0     0     0
SMALL
USER_CHARGES

@<TRIPOS>ATOM
      1 C1         -0.0178    1.4650    0.0101 C.2       1 <0>        -0.1452
      2 C2          1.2657    1.8620   -0.0000 C.2       1 <0>        -0.0156
      3 N1          2.0756    0.7609   -0.0137 N.pl3     1 <0>        -0.3590
      4 C3          1.3367   -0.3651   -0.0127 C.2       1 <0>         0.0866
      5 C4          0.0021   -0.0041    0.0020 C.2       1 <0>        -0.3026
      6 C5         -1.1544   -0.9019    0.0087 C.2       1 <0>         0.4150
      7 O1         -2.2781   -0.4438    0.0218 O.2       1 <0>        -0.4924
      8 C6          3.4772    0.7985   -0.0276 C.ar      1 <0>         0.0144
      9 C7          4.1353    1.5982   -0.9464 C.ar      1 <0>        -0.0294
     10 C8          5.5257    1.6323   -0.9558 C.ar      1 <0>        -0.1115
     11 C9          6.2601    0.8541   -0.0317 C.ar      1 <0>         0.2287
     12 C10         5.5776    0.0544    0.8867 C.ar      1 <0>        -0.1330
     13 C11         4.2004    0.0346    0.8880 C.ar      1 <0>         0.0069
     14 Cl1         3.3563   -0.9566    2.0364 Cl        1 <0>        -0.0769
     15 N2          7.6159    0.9024   -0.0590 N.2       1 <0>        -0.6109
     16 C12         8.2706    1.6411   -0.9074 C.2       1 <0>         0.6288
     17 N3          7.6527    2.4343   -1.8460 N.pl3     1 <0>        -0.2806
     18 C13         6.2792    2.4595   -1.9054 C.2       1 <0>         0.0194
     19 C14         5.9311    3.3196   -2.9176 C.2       1 <0>        -0.1813
     20 C15         7.1549    3.7887   -3.4395 C.2       1 <0>        -0.0016
     21 N4          8.1263    3.2189   -2.7500 N.2       1 <0>        -0.2357
     22 C16         7.3194    4.7436   -4.5520 C.2       1 <0>         0.5670
     23 O2          6.3352    5.2049   -5.1125 O.co2     1 <0>        -0.6876
     24 O3          8.4400    5.0738   -4.9137 O.co2     1 <0>        -0.6742
     25 O4          9.6213    1.6285   -0.8638 O.3       1 <0>        -0.6311
     26 H1         -0.8913    2.1001    0.0258 H         1 <0>         0.1439
     27 H2          1.6037    2.8877    0.0023 H         1 <0>         0.1659
     28 H3          1.7201   -1.3747   -0.0217 H         1 <0>         0.1703
     29 H4         -1.0075   -1.9718    0.0019 H         1 <0>         0.0904
     30 H5          3.5724    2.1916   -1.6517 H         1 <0>         0.1356
     31 H6          6.1282   -0.5445    1.5971 H         1 <0>         0.1422
     32 H7          4.9352    3.5806   -3.2438 H         1 <0>         0.1531
@<TRIPOS>BOND
     1    1    5 1
     2    1    2 2
     3    1   26 1
     4    2    3 1
     5    2   27 1
     6    3    4 1
     7    3    8 1
     8    4    5 2
     9    4   28 1
    10    5    6 1
    11    6    7 2
    12    6   29 1
    13    8   13 ar
    14    8    9 ar
    15    9   10 ar
    16    9   30 1
    17   10   18 1
    18   10   11 ar
    19   11   12 ar
    20   11   15 1
    21   12   13 ar
    22   12   31 1
    23   13   14 1
    24   15   16 2
    25   16   17 1
    26   16   25 1
    27   17   21 1
    28   17   18 1
    29   18   19 2
    30   19   20 1
    31   19   32 1
    32   20   21 2
    33   20   22 1
    34   22   23 2
    35   22   24 1
@<TRIPOS>MOLECULE
CHEMBL123132
   23    23     0     0     0
SMALL
USER_CHARGES

@<TRIPOS>ATOM
      1 C1         -0.0165    1.3666    0.0096 C.2       1 <0>         0.0908
      2 C2          1.1481    2.0506    0.0021 C.2       1 <0>        -0.0364
      3 C3          2.3695    1.3316   -0.0134 C.2       1 <0>         0.5353
      4 O1          3.4324    1.9260   -0.0200 O.2       1 <0>        -0.4743
      5 N1          2.3438   -0.0164   -0.0204 N.am      1 <0>        -0.6467
      6 H1          3.1758   -0.5151   -0.0307 H         1 <0>         0.4439
      7 C4          1.1691   -0.6733   -0.0127 C.2       1 <0>         0.6890
      8 O2          1.1625   -1.8892   -0.0192 O.2       1 <0>        -0.5038
      9 N2          0.0021   -0.0041    0.0020 N.am      1 <0>        -0.5415
     10 C5         -1.2605   -0.7471    0.0106 C.3       1 <0>         0.1096
     11 C6         -1.7144   -0.9980   -1.4289 C.3       1 <0>        -0.0680
     12 H2         -0.9984   -1.6518   -1.9268 H         1 <0>         0.1455
     13 C7         -3.0716   -1.6530   -1.4207 C.2       1 <0>         0.4953
     14 O3         -4.0505   -1.0319   -1.7982 O.co2     1 <0>        -0.6613
     15 O4         -3.1907   -2.8039   -1.0366 O.co2     1 <0>        -0.6192
     16 N3         -1.7921    0.2807   -2.1477 N.4       1 <0>        -0.6150
     17 F1          1.1488    3.4016    0.0089 F         1 <0>        -0.0924
     18 H3         -0.9573    1.8966    0.0259 H         1 <0>         0.1932
     19 H4         -1.1172   -1.7011    0.5179 H         1 <0>         0.1511
     20 H5         -2.0198   -0.1671    0.5351 H         1 <0>         0.1248
     21 H6         -0.8834    0.7193   -2.1532 H         1 <0>         0.4076
     22 H7         -2.0914    0.1153   -3.0970 H         1 <0>         0.4402
     23 H8         -2.4549    0.8860   -1.6868 H         1 <0>         0.4323
@<TRIPOS>BOND
     1    1    9 1
     2    1    2 2
     3    1   18 1
     4    2    3 1
     5    2   17 1
     6    3    4 2
     7    3    5 am
     8    5    6 1
     9    5    7 am
    10    7    8 2
    11    7    9 am
    12    9   10 1
    13   10   11 1
    14   10   19 1
    15   10   20 1
    16   11   12 1
    17   11   13 1
    18   11   16 1
    19   13   14 2
    20   13   15 1
    21   16   21 1
    22   16   22 1
    23   16   23 1
@<TRIPOS>MOLECULE
CHEMBL123132
   22    22     0     0     0
SMALL
USER_CHARGES

@<TRIPOS>ATOM
      1 C1         -0.0164    1.3592    0.0095 C.2       1 <0>         0.0414
      2 C2          1.1582    2.0374    0.0019 C.2       1 <0>        -0.0336
      3 C3          2.3654    1.3112   -0.0135 C.2       1 <0>         0.4523
      4 O1          3.5500    1.9626   -0.0208 O.3       1 <0>        -0.6448
      5 N1          2.3340   -0.0126   -0.0203 N.2       1 <0>        -0.6241
      6 C4          1.1732   -0.6669   -0.0127 C.2       1 <0>         0.6385
      7 O2          1.1721   -1.8868   -0.0189 O.2       1 <0>        -0.5725
      8 N2          0.0021   -0.0041    0.0020 N.am      1 <0>        -0.5571
      9 C5         -1.2584   -0.7506    0.0100 C.3       1 <0>         0.1052
     10 C6         -1.7110   -1.0028   -1.4296 C.3       1 <0>        -0.0616
     11 H1         -0.9930   -1.6546   -1.9273 H         1 <0>         0.1416
     12 C7         -3.0663   -1.6615   -1.4220 C.2       1 <0>         0.4986
     13 O3         -4.0468   -1.0432   -1.7998 O.co2     1 <0>        -0.6767
     14 O4         -3.1824   -2.8129   -1.0379 O.co2     1 <0>        -0.6297
     15 N3         -1.7920    0.2758   -2.1484 N.4       1 <0>        -0.6121
     16 F1          1.1704    3.3883    0.0086 F         1 <0>        -0.1283
     17 H2         -0.9553    1.8927    0.0258 H         1 <0>         0.1573
     18 H3         -1.1127   -1.7043    0.5174 H         1 <0>         0.1363
     19 H4         -2.0196   -0.1728    0.5343 H         1 <0>         0.0971
     20 H5         -0.8846    0.7169   -2.1535 H         1 <0>         0.4147
     21 H6         -2.0905    0.1095   -3.0978 H         1 <0>         0.4308
     22 H7         -2.4567    0.8791   -1.6877 H         1 <0>         0.4267
@<TRIPOS>BOND
     1    1    8 1
     2    1    2 2
     3    1   17 1
     4    2    3 1
     5    2   16 1
     6    3    4 1
     7    3    5 2
     8    5    6 1
     9    6    7 2
    10    6    8 am
    11    8    9 1
    12    9   10 1
    13    9   18 1
    14    9   19 1
    15   10   11 1
    16   10   12 1
    17   10   15 1
    18   12   13 2
    19   12   14 1
    20   15   20 1
    21   15   21 1
    22   15   22 1
@<TRIPOS>MOLECULE
CHEMBL129086
   43    46     0     0     0
SMALL
USER_CHARGES

@<TRIPOS>ATOM
      1 C1         -0.1289    0.1551    0.3800 C.2       1 <0>        -0.0064
      2 C2          1.1049    0.4753    0.8143 C.2       1 <0>        -0.0530
      3 N1          1.9814    0.1067   -0.1732 N.pl3     1 <0>        -0.4371
      4 C3          1.2444   -0.4285   -1.1807 C.2       1 <0>         0.2368
      5 N2         -0.0147   -0.3940   -0.8383 N.2       1 <0>        -0.4753
      6 C4          3.3761    0.2552   -0.1482 C.ar      1 <0>         0.2104
      7 C5          4.1167   -0.3370    0.8621 C.ar      1 <0>        -0.1260
      8 C6          5.4982   -0.1910    0.8875 C.ar      1 <0>         0.1961
      9 C7          6.1354    0.5541   -0.1074 C.ar      1 <0>         0.1254
     10 C8          5.3838    1.1452   -1.1172 C.ar      1 <0>        -0.0380
     11 C9          4.0136    0.9914   -1.1404 C.ar      1 <0>        -0.0458
     12 N3          3.2187    1.6174   -2.2208 N.pl3     1 <0>         0.0316
     13 O1          3.7773    2.1482   -3.1524 O.2       1 <0>        -0.1423
     14 O2          2.0108    1.5980   -2.1716 O.3       1 <0>        -0.1341
     15 N4          7.5192    0.7111   -0.0971 N.am      1 <0>        -0.6316
     16 H1          7.9527    1.2309   -0.7920 H         1 <0>         0.4308
     17 C10         8.2571    0.1422    0.8775 C.2       1 <0>         0.5108
     18 O3          9.4643    0.2768    0.8907 O.2       1 <0>        -0.4461
     19 C11         7.5764   -0.6536    1.9392 C.2       1 <0>         0.5094
     20 O4          8.2235   -1.1736    2.8259 O.2       1 <0>        -0.4336
     21 N5          6.2352   -0.7890    1.9058 N.am      1 <0>        -0.5233
     22 C12         5.5527   -1.5666    2.9429 C.3       1 <0>         0.1284
     23 C13         5.8307   -0.9446    4.3128 C.3       1 <0>        -0.1384
     24 C14         5.1179   -1.7568    5.3959 C.3       1 <0>        -0.1134
     25 C15         5.6336   -3.1971    5.3757 C.3       1 <0>        -0.1257
     26 C16         5.3555   -3.8192    4.0058 C.3       1 <0>        -0.1136
     27 C17         6.0684   -3.0070    2.9227 C.3       1 <0>        -0.1385
     28 H2         -1.0507    0.3095    0.9212 H         1 <0>         0.1775
     29 H3          1.3558    0.9343    1.7591 H         1 <0>         0.1781
     30 H4          1.6348   -0.8176   -2.1095 H         1 <0>         0.1999
     31 H5          3.6202   -0.9118    1.6299 H         1 <0>         0.1717
     32 H6          5.8746    1.7219   -1.8872 H         1 <0>         0.1790
     33 H7          4.4794   -1.5623    2.7529 H         1 <0>         0.1068
     34 H8          6.9040   -0.9489    4.5027 H         1 <0>         0.0890
     35 H9          5.4633    0.0815    4.3272 H         1 <0>         0.0686
     36 H10         5.3159   -1.3136    6.3718 H         1 <0>         0.0731
     37 H11         4.0445   -1.7524    5.2059 H         1 <0>         0.0657
     38 H12         6.7069   -3.2014    5.5656 H         1 <0>         0.0678
     39 H13         5.1257   -3.7757    6.1473 H         1 <0>         0.0691
     40 H14         5.7229   -4.8453    3.9914 H         1 <0>         0.0731
     41 H15         4.2822   -3.8148    3.8158 H         1 <0>         0.0656
     42 H16         5.8703   -3.4502    1.9467 H         1 <0>         0.0687
     43 H17         7.1417   -3.0113    3.1126 H         1 <0>         0.0888
@<TRIPOS>BOND
     1    1    5 1
     2    1    2 2
     3    1   28 1
     4    2    3 1
     5    2   29 1
     6    3    4 1
     7    3    6 1
     8    4    5 2
     9    4   30 1
    10    6   11 ar
    11    6    7 ar
    12    7    8 ar
    13    7   31 1
    14    8   21 1
    15    8    9 ar
    16    9   10 ar
    17    9   15 1
    18   10   11 ar
    19   10   32 1
    20   11   12 1
    21   12   13 2
    22   12   14 1
    23   15   16 1
    24   15   17 am
    25   17   18 2
    26   17   19 1
    27   19   20 2
    28   19   21 am
    29   21   22 1
    30   22   27 1
    31   22   23 1
    32   22   33 1
    33   23   24 1
    34   23   34 1
    35   23   35 1
    36   24   25 1
    37   24   36 1
    38   24   37 1
    39   25   26 1
    40   25   38 1
    41   25   39 1
    42   26   27 1
    43   26   40 1
    44   26   41 1
    45   27   42 1
    46   27   43 1
@<TRIPOS>MOLECULE
CHEMBL214833
   40    41     0     0     0
SMALL
USER_CHARGES

@<TRIPOS>ATOM
      1 C1         -0.0187    1.5258    0.0104 C.3       1 <0>        -0.1473
      2 C2          0.0021   -0.0041    0.0020 C.3       1 <0>        -0.0385
      3 C3          0.7074   -0.4901   -1.2379 C.2       1 <0>        -0.2047
      4 C4          2.0526   -0.7581   -1.3951 C.2       1 <0>        -0.0764
      5 C5          2.4919   -1.2039   -2.6442 C.2       1 <0>        -0.0488
      6 C6          1.4993   -1.3318   -3.6168 C.2       1 <0>        -0.1678
      7 S1          0.0330   -0.8342   -2.7361 S.3       1 <0>         0.2486
      8 C7          1.6251   -1.7547   -4.9614 C.2       1 <0>         0.5459
      9 O1          2.7236   -2.0679   -5.4050 O.co2     1 <0>        -0.6491
     10 O2          0.6355   -1.8078   -5.6821 O.co2     1 <0>        -0.6814
     11 C8          3.9118   -1.5184   -2.9171 C.ar      1 <0>        -0.0045
     12 C9          4.8744   -0.5092   -2.8706 C.ar      1 <0>        -0.1042
     13 C10         6.1966   -0.8089   -3.1261 C.ar      1 <0>        -0.1214
     14 C11         6.5689   -2.1067   -3.4285 C.ar      1 <0>        -0.0766
     15 C12         5.6193   -3.1118   -3.4767 C.ar      1 <0>        -0.1218
     16 C13         4.2948   -2.8264   -3.2166 C.ar      1 <0>        -0.0537
     17 C14         8.0149   -2.4268   -3.7070 C.3       1 <0>        -0.0269
     18 C15         8.8606   -2.0735   -2.4819 C.3       1 <0>        -0.1357
     19 C16         8.1573   -3.9194   -4.0117 C.3       1 <0>        -0.1427
     20 C17         8.4949   -1.6127   -4.9101 C.3       1 <0>        -0.1371
     21 C18         2.9707   -0.5838   -0.3100 C.1       1 <0>         0.2861
     22 N1          3.6989   -0.4456    0.5508 N.1       1 <0>        -0.4431
     23 H1          1.0039    1.9031    0.0027 H         1 <0>         0.0559
     24 H2         -0.5459    1.8868   -0.8726 H         1 <0>         0.0621
     25 H3         -0.5289    1.8773    0.9072 H         1 <0>         0.0617
     26 H4          0.5293   -0.3651    0.8851 H         1 <0>         0.0773
     27 H5         -1.0205   -0.3814    0.0098 H         1 <0>         0.0835
     28 H6          4.5850    0.5044   -2.6353 H         1 <0>         0.1104
     29 H7          6.9426   -0.0288   -3.0904 H         1 <0>         0.1131
     30 H8          5.9162   -4.1227   -3.7140 H         1 <0>         0.1211
     31 H9          3.5552   -3.6128   -3.2494 H         1 <0>         0.1163
     32 H10         8.5187   -2.6535   -1.6248 H         1 <0>         0.0541
     33 H11         9.9065   -2.3050   -2.6834 H         1 <0>         0.0532
     34 H12         8.7592   -1.0102   -2.2648 H         1 <0>         0.0548
     35 H13         7.5548   -4.1712   -4.8845 H         1 <0>         0.0611
     36 H14         9.2032   -4.1510   -4.2132 H         1 <0>         0.0527
     37 H15         7.8153   -4.4995   -3.1546 H         1 <0>         0.0569
     38 H16         8.3935   -0.5493   -4.6931 H         1 <0>         0.0551
     39 H17         9.5408   -1.8442   -5.1116 H         1 <0>         0.0526
     40 H18         7.8924   -1.8644   -5.7829 H         1 <0>         0.0591
@<TRIPOS>BOND
     1    1    2 1
     2    1   23 1
     3    1   24 1
     4    1   25 1
     5    2    3 1
     6    2   26 1
     7    2   27 1
     8    3    7 1
     9    3    4 2
    10    4    5 1
    11    4   21 1
    12    5    6 2
    13    5   11 1
    14    6    7 1
    15    6    8 1
    16    8    9 2
    17    8   10 1
    18   11   16 ar
    19   11   12 ar
    20   12   13 ar
    21   12   28 1
    22   13   14 ar
    23   13   29 1
    24   14   15 ar
    25   14   17 1
    26   15   16 ar
    27   15   30 1
    28   16   31 1
    29   17   18 1
    30   17   19 1
    31   17   20 1
    32   18   32 1
    33   18   33 1
    34   18   34 1
    35   19   35 1
    36   19   36 1
    37   19   37 1
    38   20   38 1
    39   20   39 1
    40   20   40 1
    41   21   22 3
@<TRIPOS>MOLECULE
CHEMBL63108
   39    42     0     0     0
SMALL
USER_CHARGES

@<TRIPOS>ATOM
      1 C1         -1.2038   -0.0840    1.0135 C.3       1 <0>        -0.1593
      2 C2          0.3007    0.1416    0.8506 C.3       1 <0>        -0.1437
      3 C3          0.7892   -0.5698   -0.4128 C.3       1 <0>         0.0982
      4 C4          0.7514   -2.0983   -0.2251 C.3       1 <0>         0.0579
      5 N1          2.1516   -2.5085   -0.3722 N.pl3     1 <0>        -0.5500
      6 C5          2.9098   -1.4792   -0.6011 C.cat     1 <0>         0.4652
      7 N2          2.2163   -0.2939   -0.6455 N.pl3     1 <0>        -0.4739
      8 C6          2.8853    0.9081   -0.8821 C.ar      1 <0>         0.1636
      9 C7          2.1669    2.0959   -0.9232 C.ar      1 <0>        -0.0938
     10 C8          2.8232    3.2942   -1.1576 C.ar      1 <0>         0.2181
     11 C9          4.1993    3.3081   -1.3511 C.ar      1 <0>        -0.0063
     12 C10         4.9170    2.1304   -1.3115 C.ar      1 <0>        -0.0340
     13 C11         4.2662    0.9249   -1.0765 C.ar      1 <0>         0.1409
     14 N3          5.0000   -0.2609   -1.0374 N.am      1 <0>        -0.6026
     15 C12         4.3903   -1.4384   -0.8132 C.2       1 <0>         0.5620
     16 O1          5.0394   -2.4649   -0.7813 O.2       1 <0>        -0.4278
     17 N4          4.8968    4.5897   -1.6006 N.pl3     1 <0>         0.0148
     18 O2          4.3660    5.4468   -2.2679 O.2       1 <0>        -0.1003
     19 O3          5.9972    4.7793   -1.1372 O.3       1 <0>        -0.1190
     20 N5          2.0975    4.4942   -1.1992 N.pl3     1 <0>        -0.4448
     21 C13         2.3222    5.6092   -0.4341 C.2       1 <0>        -0.0508
     22 C14         1.4008    6.5224   -0.7956 C.2       1 <0>         0.0130
     23 N6          0.6324    5.9850   -1.7545 N.2       1 <0>        -0.4621
     24 C15         1.0434    4.7725   -2.0091 C.2       1 <0>         0.2090
     25 H1         -1.7340    0.3918    0.1886 H         1 <0>         0.0725
     26 H2         -1.4132   -1.1537    1.0111 H         1 <0>         0.0669
     27 H3         -1.5361    0.3491    1.9570 H         1 <0>         0.0827
     28 H4          0.5009    1.2097    0.7666 H         1 <0>         0.0910
     29 H5          0.8242   -0.2591    1.7186 H         1 <0>         0.0876
     30 H6          0.1939   -0.2708   -1.2756 H         1 <0>         0.1509
     31 H7          0.3811   -2.3523    0.7681 H         1 <0>         0.1503
     32 H8          0.1343   -2.5626   -0.9944 H         1 <0>         0.1523
     33 H9          1.0974    2.0860   -0.7730 H         1 <0>         0.1791
     34 H10         5.9862    2.1453   -1.4630 H         1 <0>         0.1890
     35 H11         5.9600   -0.2360   -1.1741 H         1 <0>         0.4545
     36 H12         3.0904    5.7316    0.3151 H         1 <0>         0.1761
     37 H13         1.2982    7.5157   -0.3842 H         1 <0>         0.1855
     38 H14         0.6151    4.1019   -2.7393 H         1 <0>         0.2145
     39 H15         2.4681   -3.4231   -0.3070 H         1 <0>         0.4730
@<TRIPOS>BOND
     1    1    2 1
     2    1   25 1
     3    1   26 1
     4    1   27 1
     5    2    3 1
     6    2   28 1
     7    2   29 1
     8    3    7 1
     9    3    4 1
    10    3   30 1
    11    4    5 1
    12    4   31 1
    13    4   32 1
    14    5    6 2
    15    5   39 1
    16    6   15 1
    17    6    7 1
    18    7    8 1
    19    8   13 ar
    20    8    9 ar
    21    9   10 ar
    22    9   33 1
    23   10   11 ar
    24   10   20 1
    25   11   12 ar
    26   11   17 1
    27   12   13 ar
    28   12   34 1
    29   13   14 1
    30   14   15 am
    31   14   35 1
    32   15   16 2
    33   17   18 2
    34   17   19 1
    35   20   24 1
    36   20   21 1
    37   21   22 2
    38   21   36 1
    39   22   23 1
    40   22   37 1
    41   23   24 2
    42   24   38 1
@<TRIPOS>MOLECULE
CHEMBL63108
   38    41     0     0     0
SMALL
USER_CHARGES

@<TRIPOS>ATOM
      1 C1          1.4876   -0.0638    0.5259 C.3       1 <0>        -0.1546
      2 C2          0.5853    0.1388   -0.6930 C.3       1 <0>        -0.1402
      3 C3         -0.7379   -0.5981   -0.4762 C.3       1 <0>         0.0978
      4 C4         -0.5253   -2.1230   -0.5282 C.3       1 <0>         0.0635
      5 N1         -1.3475   -2.5585   -1.6621 N.pl3     1 <0>        -0.5992
      6 C5         -1.9499   -1.5384   -2.2105 C.cat     1 <0>         0.4441
      7 N2         -1.6607   -0.3459   -1.5925 N.pl3     1 <0>        -0.4653
      8 C6         -2.2297    0.8268   -2.0659 C.ar      1 <0>         0.0847
      9 C7         -1.9456    2.0386   -1.4511 C.ar      1 <0>        -0.0876
     10 C8         -2.5186    3.2054   -1.9314 C.ar      1 <0>         0.1500
     11 C9         -3.3773    3.1666   -3.0273 C.ar      1 <0>        -0.0113
     12 C10        -3.6654    1.9817   -3.6407 C.ar      1 <0>        -0.0236
     13 C11        -3.0963    0.7908   -3.1710 C.ar      1 <0>         0.1827
     14 N3         -3.3840   -0.3861   -3.7823 N.2       1 <0>        -0.5329
     15 C12        -2.8717   -1.5120   -3.3732 C.2       1 <0>         0.4502
     16 O1         -3.1833   -2.6650   -4.0118 O.3       1 <0>        -0.5913
     17 N4         -3.9828    4.4202   -3.5305 N.pl3     1 <0>         0.0235
     18 O2         -4.3218    5.2821   -2.7534 O.2       1 <0>        -0.1248
     19 O3         -4.1382    4.5820   -4.7184 O.3       1 <0>        -0.1371
     20 N5         -2.2332    4.4292   -1.3117 N.pl3     1 <0>        -0.4246
     21 C13        -1.7209    5.5486   -1.9154 C.2       1 <0>        -0.0457
     22 C14        -1.6055    6.4893   -0.9588 C.2       1 <0>        -0.0047
     23 N6         -2.0339    5.9644    0.1988 N.2       1 <0>        -0.4761
     24 C15        -2.4172    4.7328   -0.0004 C.2       1 <0>         0.2028
     25 H1          2.4613    0.3879    0.3363 H         1 <0>         0.0752
     26 H2          1.0322    0.4067    1.3973 H         1 <0>         0.0673
     27 H3          1.6121   -1.1305    0.7124 H         1 <0>         0.0637
     28 H4          0.3907    1.2028   -0.8282 H         1 <0>         0.0866
     29 H5          1.0797   -0.2558   -1.5807 H         1 <0>         0.0825
     30 H6         -1.1902   -0.3027    0.4705 H         1 <0>         0.1338
     31 H7          0.5245   -2.3564   -0.7056 H         1 <0>         0.1285
     32 H8         -0.8704   -2.5885    0.3950 H         1 <0>         0.1290
     33 H9         -1.2804    2.0719   -0.6010 H         1 <0>         0.1571
     34 H10        -4.3328    1.9622   -4.4895 H         1 <0>         0.1771
     35 H11        -1.4598    5.6553   -2.9579 H         1 <0>         0.1696
     36 H12        -1.2321    7.4929   -1.0994 H         1 <0>         0.1778
     37 H13        -2.8125    4.0660    0.7517 H         1 <0>         0.2081
     38 H14        -1.4319   -3.4769   -1.9627 H         1 <0>         0.4632
@<TRIPOS>BOND
     1    1    2 1
     2    1   25 1
     3    1   26 1
     4    1   27 1
     5    2    3 1
     6    2   28 1
     7    2   29 1
     8    3    7 1
     9    3    4 1
    10    3   30 1
    11    4    5 1
    12    4   31 1
    13    4   32 1
    14    5    6 2
    15    5   38 1
    16    6   15 1
    17    6    7 1
    18    7    8 1
    19    8   13 ar
    20    8    9 ar
    21    9   10 ar
    22    9   33 1
    23   10   11 ar
    24   10   20 1
    25   11   12 ar
    26   11   17 1
    27   12   13 ar
    28   12   34 1
    29   13   14 1
    30   14   15 2
    31   15   16 1
    32   17   18 2
    33   17   19 1
    34   20   24 1
    35   20   21 1
    36   21   22 2
    37   21   35 1
    38   22   23 1
    39   22   36 1
    40   23   24 2
    41   24   37 1
@<TRIPOS>MOLECULE
CHEMBL63108
   38    41     0     0     0
SMALL
USER_CHARGES

@<TRIPOS>ATOM
      1 C1         -1.2038   -0.0840    1.0135 C.3       1 <0>        -0.1529
      2 C2          0.3007    0.1416    0.8506 C.3       1 <0>        -0.1362
      3 C3          0.7892   -0.5698   -0.4128 C.3       1 <0>         0.1053
      4 C4          0.7514   -2.0983   -0.2251 C.3       1 <0>         0.0211
      5 N1          2.1516   -2.5085   -0.3722 N.2       1 <0>        -0.4542
      6 C5          2.9098   -1.4792   -0.6011 C.2       1 <0>         0.3139
      7 N2          2.2163   -0.2939   -0.6455 N.pl3     1 <0>        -0.5601
      8 C6          2.8853    0.9081   -0.8821 C.ar      1 <0>         0.2297
      9 C7          2.1669    2.0959   -0.9232 C.ar      1 <0>        -0.1343
     10 C8          2.8232    3.2942   -1.1576 C.ar      1 <0>         0.2079
     11 C9          4.1993    3.3081   -1.3511 C.ar      1 <0>        -0.0478
     12 C10         4.9170    2.1304   -1.3115 C.ar      1 <0>        -0.0402
     13 C11         4.2662    0.9249   -1.0765 C.ar      1 <0>         0.1205
     14 N3          5.0000   -0.2609   -1.0374 N.am      1 <0>        -0.6362
     15 C12         4.3903   -1.4384   -0.8132 C.2       1 <0>         0.5875
     16 O1          5.0394   -2.4649   -0.7813 O.2       1 <0>        -0.4564
     17 N4          4.8968    4.5897   -1.6006 N.pl3     1 <0>         0.0290
     18 O2          4.3660    5.4468   -2.2679 O.2       1 <0>        -0.1249
     19 O3          5.9972    4.7793   -1.1372 O.3       1 <0>        -0.1440
     20 N5          2.0975    4.4942   -1.1992 N.pl3     1 <0>        -0.4323
     21 C13         2.3222    5.6092   -0.4341 C.2       1 <0>        -0.0466
     22 C14         1.4008    6.5224   -0.7956 C.2       1 <0>        -0.0013
     23 N6          0.6324    5.9850   -1.7545 N.2       1 <0>        -0.4740
     24 C15         1.0434    4.7725   -2.0091 C.2       1 <0>         0.2079
     25 H1         -1.7340    0.3918    0.1886 H         1 <0>         0.0625
     26 H2         -1.4132   -1.1537    1.0111 H         1 <0>         0.0635
     27 H3         -1.5361    0.3491    1.9570 H         1 <0>         0.0680
     28 H4          0.5009    1.2097    0.7666 H         1 <0>         0.0736
     29 H5          0.8242   -0.2591    1.7186 H         1 <0>         0.0752
     30 H6          0.1939   -0.2708   -1.2756 H         1 <0>         0.1087
     31 H7          0.3811   -2.3523    0.7681 H         1 <0>         0.1175
     32 H8          0.1343   -2.5626   -0.9944 H         1 <0>         0.1166
     33 H9          1.0974    2.0860   -0.7730 H         1 <0>         0.1657
     34 H10         5.9862    2.1453   -1.4630 H         1 <0>         0.1724
     35 H11         5.9600   -0.2360   -1.1741 H         1 <0>         0.4341
     36 H12         3.0904    5.7316    0.3151 H         1 <0>         0.1707
     37 H13         1.2982    7.5157   -0.3842 H         1 <0>         0.1791
     38 H14         0.6151    4.1019   -2.7393 H         1 <0>         0.2107
@<TRIPOS>BOND
     1    1    2 1
     2    1   25 1
     3    1   26 1
     4    1   27 1
     5    2    3 1
     6    2   28 1
     7    2   29 1
     8    3    7 1
     9    3    4 1
    10    3   30 1
    11    4    5 1
    12    4   31 1
    13    4   32 1
    14    5    6 2
    15    6   15 1
    16    6    7 1
    17    7    8 1
    18    8   13 ar
    19    8    9 ar
    20    9   10 ar
    21    9   33 1
    22   10   11 ar
    23   10   20 1
    24   11   12 ar
    25   11   17 1
    26   12   13 ar
    27   12   34 1
    28   13   14 1
    29   14   15 am
    30   14   35 1
    31   15   16 2
    32   17   18 2
    33   17   19 1
    34   20   24 1
    35   20   21 1
    36   21   22 2
    37   21   36 1
    38   22   23 1
    39   22   37 1
    40   23   24 2
    41   24   38 1
@<TRIPOS>MOLECULE
CHEMBL63108
   39    42     0     0     0
SMALL
USER_CHARGES

@<TRIPOS>ATOM
      1 C1          1.9578   -0.3291    0.7831 C.3       1 <0>        -0.1598
      2 C2          0.9001    0.0345   -0.2609 C.3       1 <0>        -0.1435
      3 C3          1.4525   -0.2351   -1.6619 C.3       1 <0>         0.0980
      4 C4          1.5979   -1.7489   -1.9070 C.3       1 <0>         0.0581
      5 N1          0.7027   -2.0128   -3.0382 N.pl3     1 <0>        -0.5500
      6 C5          0.1195   -0.9193   -3.4267 C.cat     1 <0>         0.4653
      7 N2          0.4855    0.1817   -2.6907 N.pl3     1 <0>        -0.4739
      8 C6         -0.0518    1.4367   -2.9812 C.ar      1 <0>         0.1635
      9 C7          0.3306    2.5377   -2.2259 C.ar      1 <0>        -0.0937
     10 C8         -0.1980    3.7878   -2.5075 C.ar      1 <0>         0.2179
     11 C9         -1.1106    3.9404   -3.5444 C.ar      1 <0>        -0.0061
     12 C10        -1.4937    2.8494   -4.2971 C.ar      1 <0>        -0.0341
     13 C11        -0.9670    1.5928   -4.0218 C.ar      1 <0>         0.1409
     14 N3         -1.3594    0.4955   -4.7887 N.am      1 <0>        -0.6025
     15 C12        -0.8643   -0.7294   -4.5378 C.2       1 <0>         0.5618
     16 O1         -1.2132   -1.6780   -5.2122 O.2       1 <0>        -0.4279
     17 N4         -1.6734    5.2769   -3.8419 N.pl3     1 <0>         0.0148
     18 O2         -1.9318    6.0385   -2.9392 O.2       1 <0>        -0.1003
     19 O3         -1.8745    5.6067   -4.9874 O.3       1 <0>        -0.1186
     20 N5          0.1882    4.9000   -1.7445 N.pl3     1 <0>        -0.4448
     21 C13         0.7304    6.0658   -2.2200 C.2       1 <0>        -0.0508
     22 C14         0.9491    6.8579   -1.1531 C.2       1 <0>         0.0130
     23 N6          0.5533    6.1988   -0.0542 N.2       1 <0>        -0.4620
     24 C15         0.0902    5.0272   -0.3959 C.2       1 <0>         0.2086
     25 H1          2.1466   -1.4021    0.7506 H         1 <0>         0.0674
     26 H2          2.8810    0.2089    0.5676 H         1 <0>         0.0714
     27 H3          1.5995   -0.0530    1.7748 H         1 <0>         0.0839
     28 H4          0.0076   -0.5701   -0.0997 H         1 <0>         0.0886
     29 H5          0.6454    1.0902   -0.1676 H         1 <0>         0.0911
     30 H6          2.4065    0.2732   -1.8023 H         1 <0>         0.1499
     31 H7          2.6267   -1.9967   -2.1679 H         1 <0>         0.1518
     32 H8          1.2795   -2.3105   -1.0287 H         1 <0>         0.1506
     33 H9          1.0391    2.4199   -1.4194 H         1 <0>         0.1791
     34 H10        -2.2036    2.9719   -5.1017 H         1 <0>         0.1889
     35 H11        -1.9967    0.6171   -5.5097 H         1 <0>         0.4545
     36 H12         0.9418    6.3033   -3.2522 H         1 <0>         0.1763
     37 H13         1.3708    7.8519   -1.1781 H         1 <0>         0.1856
     38 H14        -0.3023    4.2826    0.2808 H         1 <0>         0.2141
     39 H15         0.5653   -2.8843   -3.4412 H         1 <0>         0.4729
@<TRIPOS>BOND
     1    1    2 1
     2    1   25 1
     3    1   26 1
     4    1   27 1
     5    2    3 1
     6    2   28 1
     7    2   29 1
     8    3    7 1
     9    3    4 1
    10    3   30 1
    11    4    5 1
    12    4   31 1
    13    4   32 1
    14    5    6 2
    15    5   39 1
    16    6   15 1
    17    6    7 1
    18    7    8 1
    19    8   13 ar
    20    8    9 ar
    21    9   10 ar
    22    9   33 1
    23   10   11 ar
    24   10   20 1
    25   11   12 ar
    26   11   17 1
    27   12   13 ar
    28   12   34 1
    29   13   14 1
    30   14   15 am
    31   14   35 1
    32   15   16 2
    33   17   18 2
    34   17   19 1
    35   20   24 1
    36   20   21 1
    37   21   22 2
    38   21   36 1
    39   22   23 1
    40   22   37 1
    41   23   24 2
    42   24   38 1
@<TRIPOS>MOLECULE
CHEMBL63108
   38    41     0     0     0
SMALL
USER_CHARGES

@<TRIPOS>ATOM
      1 C1         -0.2928   -0.3265   -2.0924 C.3       1 <0>        -0.1549
      2 C2         -0.6757    0.0308   -0.6548 C.3       1 <0>        -0.1400
      3 C3         -2.1561   -0.2824   -0.4285 C.3       1 <0>         0.0975
      4 C4         -2.3959   -1.8042   -0.4313 C.3       1 <0>         0.0636
      5 N1         -2.9169   -2.0849    0.9108 N.pl3     1 <0>        -0.5992
      6 C5         -2.9923   -0.9867    1.6125 C.cat     1 <0>         0.4441
      7 N2         -2.5714    0.1240    0.9219 N.pl3     1 <0>        -0.4653
      8 C6         -2.5943    1.3649    1.5405 C.ar      1 <0>         0.0847
      9 C7         -2.1722    2.4954    0.8541 C.ar      1 <0>        -0.0876
     10 C8         -2.1991    3.7313    1.4802 C.ar      1 <0>         0.1499
     11 C9         -2.6475    3.8431    2.7941 C.ar      1 <0>        -0.0112
     12 C10        -3.0649    2.7396    3.4806 C.ar      1 <0>        -0.0236
     13 C11        -3.0460    1.4810    2.8656 C.ar      1 <0>         0.1828
     14 N3         -3.4614    0.3851    3.5499 N.2       1 <0>        -0.5330
     15 C12        -3.4586   -0.8002    3.0090 C.2       1 <0>         0.4502
     16 O1         -3.8826   -1.8684    3.7256 O.3       1 <0>        -0.5913
     17 N4         -2.6712    5.1692    3.4515 N.pl3     1 <0>         0.0234
     18 O2         -1.7876    5.9660    3.2372 O.2       1 <0>        -0.1247
     19 O3         -3.5742    5.4555    4.2026 O.3       1 <0>        -0.1370
     20 N5         -1.7730    4.8730    0.7888 N.pl3     1 <0>        -0.4246
     21 C13        -2.4985    6.0176    0.5800 C.2       1 <0>        -0.0458
     22 C14        -1.7129    6.8541   -0.1244 C.2       1 <0>        -0.0046
     23 N6         -0.5392    6.2426   -0.3426 N.2       1 <0>        -0.4760
     24 C15        -0.5609    5.0575    0.2038 C.2       1 <0>         0.2026
     25 H1          0.7361   -0.0201   -2.2812 H         1 <0>         0.0764
     26 H2         -0.3834   -1.4032   -2.2356 H         1 <0>         0.0638
     27 H3         -0.9583    0.1893   -2.7846 H         1 <0>         0.0665
     28 H4         -0.0706   -0.5535    0.0383 H         1 <0>         0.0834
     29 H5         -0.4990    1.0929   -0.4851 H         1 <0>         0.0868
     30 H6         -2.7711    0.2074   -1.1834 H         1 <0>         0.1329
     31 H7         -3.1303   -2.0738   -1.1903 H         1 <0>         0.1287
     32 H8         -1.4601   -2.3380   -0.5972 H         1 <0>         0.1287
     33 H9         -1.8236    2.4118   -0.1647 H         1 <0>         0.1571
     34 H10        -3.4104    2.8369    4.4992 H         1 <0>         0.1771
     35 H11        -3.5066    6.2109    0.9158 H         1 <0>         0.1697
     36 H12        -1.9816    7.8460   -0.4567 H         1 <0>         0.1779
     37 H13         0.2485    4.3425    0.1912 H         1 <0>         0.2078
     38 H14        -3.1702   -2.9643    1.2323 H         1 <0>         0.4632
@<TRIPOS>BOND
     1    1    2 1
     2    1   25 1
     3    1   26 1
     4    1   27 1
     5    2    3 1
     6    2   28 1
     7    2   29 1
     8    3    7 1
     9    3    4 1
    10    3   30 1
    11    4    5 1
    12    4   31 1
    13    4   32 1
    14    5    6 2
    15    5   38 1
    16    6   15 1
    17    6    7 1
    18    7    8 1
    19    8   13 ar
    20    8    9 ar
    21    9   10 ar
    22    9   33 1
    23   10   11 ar
    24   10   20 1
    25   11   12 ar
    26   11   17 1
    27   12   13 ar
    28   12   34 1
    29   13   14 1
    30   14   15 2
    31   15   16 1
    32   17   18 2
    33   17   19 1
    34   20   24 1
    35   20   21 1
    36   21   22 2
    37   21   35 1
    38   22   23 1
    39   22   36 1
    40   23   24 2
    41   24   37 1
@<TRIPOS>MOLECULE
CHEMBL63108
   38    41     0     0     0
SMALL
USER_CHARGES

@<TRIPOS>ATOM
      1 C1          1.9578   -0.3291    0.7831 C.3       1 <0>        -0.1530
      2 C2          0.9001    0.0345   -0.2609 C.3       1 <0>        -0.1358
      3 C3          1.4525   -0.2351   -1.6619 C.3       1 <0>         0.1050
      4 C4          1.5979   -1.7489   -1.9070 C.3       1 <0>         0.0213
      5 N1          0.7027   -2.0128   -3.0382 N.2       1 <0>        -0.4542
      6 C5          0.1195   -0.9193   -3.4267 C.2       1 <0>         0.3139
      7 N2          0.4855    0.1817   -2.6907 N.pl3     1 <0>        -0.5601
      8 C6         -0.0518    1.4367   -2.9812 C.ar      1 <0>         0.2296
      9 C7          0.3306    2.5377   -2.2259 C.ar      1 <0>        -0.1342
     10 C8         -0.1980    3.7878   -2.5075 C.ar      1 <0>         0.2077
     11 C9         -1.1106    3.9404   -3.5444 C.ar      1 <0>        -0.0476
     12 C10        -1.4937    2.8494   -4.2971 C.ar      1 <0>        -0.0403
     13 C11        -0.9670    1.5928   -4.0218 C.ar      1 <0>         0.1205
     14 N3         -1.3594    0.4955   -4.7887 N.am      1 <0>        -0.6361
     15 C12        -0.8643   -0.7294   -4.5378 C.2       1 <0>         0.5874
     16 O1         -1.2132   -1.6780   -5.2122 O.2       1 <0>        -0.4565
     17 N4         -1.6734    5.2769   -3.8419 N.pl3     1 <0>         0.0289
     18 O2         -1.9318    6.0385   -2.9392 O.2       1 <0>        -0.1249
     19 O3         -1.8745    5.6067   -4.9874 O.3       1 <0>        -0.1436
     20 N5          0.1882    4.9000   -1.7445 N.pl3     1 <0>        -0.4324
     21 C13         0.7304    6.0658   -2.2200 C.2       1 <0>        -0.0468
     22 C14         0.9491    6.8579   -1.1531 C.2       1 <0>        -0.0012
     23 N6          0.5533    6.1988   -0.0542 N.2       1 <0>        -0.4739
     24 C15         0.0902    5.0272   -0.3959 C.2       1 <0>         0.2078
     25 H1          2.1466   -1.4021    0.7506 H         1 <0>         0.0631
     26 H2          2.8810    0.2089    0.5676 H         1 <0>         0.0621
     27 H3          1.5995   -0.0530    1.7748 H         1 <0>         0.0690
     28 H4          0.0076   -0.5701   -0.0997 H         1 <0>         0.0762
     29 H5          0.6454    1.0902   -0.1676 H         1 <0>         0.0738
     30 H6          2.4065    0.2732   -1.8023 H         1 <0>         0.1077
     31 H7          2.6267   -1.9967   -2.1679 H         1 <0>         0.1162
     32 H8          1.2795   -2.3105   -1.0287 H         1 <0>         0.1177
     33 H9          1.0391    2.4199   -1.4194 H         1 <0>         0.1656
     34 H10        -2.2036    2.9719   -5.1017 H         1 <0>         0.1723
     35 H11        -1.9967    0.6171   -5.5097 H         1 <0>         0.4341
     36 H12         0.9418    6.3033   -3.2522 H         1 <0>         0.1709
     37 H13         1.3708    7.8519   -1.1781 H         1 <0>         0.1793
     38 H14        -0.3023    4.2826    0.2808 H         1 <0>         0.2104
@<TRIPOS>BOND
     1    1    2 1
     2    1   25 1
     3    1   26 1
     4    1   27 1
     5    2    3 1
     6    2   28 1
     7    2   29 1
     8    3    7 1
     9    3    4 1
    10    3   30 1
    11    4    5 1
    12    4   31 1
    13    4   32 1
    14    5    6 2
    15    6   15 1
    16    6    7 1
    17    7    8 1
    18    8   13 ar
    19    8    9 ar
    20    9   10 ar
    21    9   33 1
    22   10   11 ar
    23   10   20 1
    24   11   12 ar
    25   11   17 1
    26   12   13 ar
    27   12   34 1
    28   13   14 1
    29   14   15 am
    30   14   35 1
    31   15   16 2
    32   17   18 2
    33   17   19 1
    34   20   24 1
    35   20   21 1
    36   21   22 2
    37   21   36 1
    38   22   23 1
    39   22   37 1
    40   23   24 2
    41   24   38 1
@<TRIPOS>MOLECULE
CHEMBL192429
   84    85     0     0     0
SMALL
USER_CHARGES

@<TRIPOS>ATOM
      1 C1         -0.0187    1.5258    0.0104 C.3       1 <0>        -0.1562
      2 C2          0.0021   -0.0041    0.0020 C.3       1 <0>        -0.1065
      3 C3          0.7421   -0.5109    1.2415 C.3       1 <0>        -0.1421
      4 C4          0.7625   -2.0177    1.2333 C.2       1 <0>         0.5229
      5 O1          0.2370   -2.6263    0.3253 O.2       1 <0>        -0.5128
      6 N1          1.3648   -2.6890    2.2348 N.am      1 <0>        -0.7238
      7 C5          1.3847   -4.1539    2.2267 C.3       1 <0>         0.1463
      8 H1          1.9119   -4.5150    3.1098 H         1 <0>         0.1091
      9 C6         -0.0507   -4.6835    2.2376 C.3       1 <0>        -0.0902
     10 C7         -0.7175   -4.3009    3.5338 C.ar      1 <0>        -0.0890
     11 C8         -0.6366   -5.1459    4.6259 C.ar      1 <0>        -0.1147
     12 C9         -1.2453   -4.8005    5.8155 C.ar      1 <0>        -0.1105
     13 C10        -1.9424   -3.5982    5.9150 C.ar      1 <0>        -0.0328
     14 C11        -2.0207   -2.7508    4.8117 C.ar      1 <0>        -0.1073
     15 C12        -1.4034   -3.1035    3.6287 C.ar      1 <0>        -0.0995
     16 C13        -2.5994   -3.2217    7.1912 C.ar      1 <0>        -0.0579
     17 C14        -2.5166   -4.0666    8.2960 C.ar      1 <0>        -0.1099
     18 C15        -3.1291   -3.7113    9.4807 C.ar      1 <0>        -0.1175
     19 C16        -3.8246   -2.5192    9.5722 C.ar      1 <0>        -0.1117
     20 C17        -3.9104   -1.6769    8.4784 C.ar      1 <0>        -0.1155
     21 C18        -3.2964   -2.0193    7.2907 C.ar      1 <0>        -0.1082
     22 C19         2.0901   -4.6399    0.9868 C.2       1 <0>         0.5047
     23 O2          2.2102   -3.9045    0.0299 O.2       1 <0>        -0.4894
     24 N2          2.5873   -5.8917    0.9414 N.am      1 <0>        -0.7428
     25 C20         3.2730   -6.3642   -0.2639 C.3       1 <0>         0.1253
     26 C21         3.7365   -7.8072   -0.0545 C.3       1 <0>        -0.1640
     27 C22         4.4526   -8.3006   -1.3133 C.3       1 <0>        -0.0059
     28 N3          4.8976   -9.6861   -1.1123 N.4       1 <0>        -0.5095
     29 C23         5.5852  -10.1598   -2.3209 C.3       1 <0>        -0.0099
     30 C24         6.0486  -11.6028   -2.1115 C.3       1 <0>        -0.1499
     31 C25         6.7648  -12.0962   -3.3703 C.3       1 <0>        -0.1502
     32 C26         7.2282  -13.5392   -3.1609 C.3       1 <0>        -0.0099
     33 N4          7.9158  -14.0130   -4.3695 N.4       1 <0>        -0.5105
     34 C27         8.3608  -15.3985   -4.1684 C.3       1 <0>        -0.0048
     35 C28         9.0769  -15.8919   -5.4272 C.3       1 <0>        -0.1883
     36 C29         9.5404  -17.3349   -5.2178 C.3       1 <0>        -0.0023
     37 N5         10.2280  -17.8086   -6.4264 N.4       1 <0>        -0.6386
     38 H2          1.0039    1.9031    0.0027 H         1 <0>         0.0548
     39 H3         -0.5459    1.8868   -0.8726 H         1 <0>         0.0603
     40 H4         -0.5289    1.8773    0.9072 H         1 <0>         0.0565
     41 H5         -1.0205   -0.3814    0.0098 H         1 <0>         0.0683
     42 H6          0.5123   -0.3556   -0.8948 H         1 <0>         0.0677
     43 H7          1.7647   -0.1336    1.2338 H         1 <0>         0.0925
     44 H8          0.2319   -0.1594    2.1383 H         1 <0>         0.0943
     45 H9          1.7851   -2.2023    2.9609 H         1 <0>         0.4084
     46 H10        -0.6036   -4.2517    1.4033 H         1 <0>         0.1039
     47 H11        -0.0381   -5.7692    2.1421 H         1 <0>         0.0781
     48 H12        -0.0963   -6.0778    4.5476 H         1 <0>         0.1194
     49 H13        -1.1818   -5.4612    6.6675 H         1 <0>         0.1264
     50 H14        -2.5600   -1.8178    4.8832 H         1 <0>         0.1279
     51 H15        -1.4594   -2.4452    2.7743 H         1 <0>         0.1194
     52 H16        -1.9744   -4.9980    8.2255 H         1 <0>         0.1232
     53 H17        -3.0656   -4.3654   10.3377 H         1 <0>         0.1263
     54 H18        -4.3027   -2.2452   10.5011 H         1 <0>         0.1267
     55 H19        -4.4550   -0.7474    8.5552 H         1 <0>         0.1277
     56 H20        -3.3603   -1.3589    6.4386 H         1 <0>         0.1251
     57 H21         2.4912   -6.4799    1.7067 H         1 <0>         0.4016
     58 H22         2.5889   -6.3217   -1.1114 H         1 <0>         0.0775
     59 H23         4.1372   -5.7302   -0.4624 H         1 <0>         0.0762
     60 H24         4.4206   -7.8497    0.7930 H         1 <0>         0.0967
     61 H25         2.8723   -8.4412    0.1439 H         1 <0>         0.0972
     62 H26         3.7685   -8.2581   -2.1608 H         1 <0>         0.1395
     63 H27         5.3168   -7.6666   -1.5118 H         1 <0>         0.1391
     64 H28         5.5309   -9.7254   -0.3278 H         1 <0>         0.4314
     65 H29         4.9011  -10.1173   -3.1684 H         1 <0>         0.1375
     66 H30         6.4494   -9.5258   -2.5194 H         1 <0>         0.1373
     67 H31         6.7328  -11.6453   -1.2640 H         1 <0>         0.1009
     68 H32         5.1845  -12.2368   -1.9130 H         1 <0>         0.1010
     69 H33         6.0806  -12.0537   -4.2178 H         1 <0>         0.1018
     70 H34         7.6289  -11.4623   -3.5688 H         1 <0>         0.1017
     71 H35         7.9124  -13.5818   -2.3134 H         1 <0>         0.1402
     72 H36         6.3641  -14.1732   -2.9624 H         1 <0>         0.1403
     73 H37         7.2825  -13.9736   -5.1540 H         1 <0>         0.4345
     74 H38         9.0450  -15.4410   -3.3210 H         1 <0>         0.1456
     75 H39         7.4966  -16.0324   -3.9700 H         1 <0>         0.1457
     76 H40         8.3928  -15.8494   -6.2747 H         1 <0>         0.1138
     77 H41         9.9411  -15.2579   -5.6257 H         1 <0>         0.1137
     78 H42        10.2245  -17.3774   -4.3703 H         1 <0>         0.1458
     79 H43         8.6762  -17.9689   -5.0193 H         1 <0>         0.1458
     80 H44         9.5947  -17.7693   -7.2110 H         1 <0>         0.4411
     81 H45        11.0279  -17.2218   -6.6102 H         1 <0>         0.4410
     82 H46        10.5336  -18.7603   -6.2883 H         1 <0>         0.4534
     83 H47         4.0977  -10.2729   -0.9285 H         1 <0>         0.4317
     84 H48         8.7158  -13.4261   -4.5532 H         1 <0>         0.4344
@<TRIPOS>BOND
     1    1    2 1
     2    1   38 1
     3    1   39 1
     4    1   40 1
     5    2    3 1
     6    2   41 1
     7    2   42 1
     8    3    4 1
     9    3   43 1
    10    3   44 1
    11    4    5 2
    12    4    6 am
    13    6    7 1
    14    6   45 1
    15    7    8 1
    16    7    9 1
    17    7   22 1
    18    9   10 1
    19    9   46 1
    20    9   47 1
    21   10   15 ar
    22   10   11 ar
    23   11   12 ar
    24   11   48 1
    25   12   13 ar
    26   12   49 1
    27   13   14 ar
    28   13   16 1
    29   14   15 ar
    30   14   50 1
    31   15   51 1
    32   16   21 ar
    33   16   17 ar
    34   17   18 ar
    35   17   52 1
    36   18   19 ar
    37   18   53 1
    38   19   20 ar
    39   19   54 1
    40   20   21 ar
    41   20   55 1
    42   21   56 1
    43   22   23 2
    44   22   24 am
    45   24   25 1
    46   24   57 1
    47   25   26 1
    48   25   58 1
    49   25   59 1
    50   26   27 1
    51   26   60 1
    52   26   61 1
    53   27   28 1
    54   27   62 1
    55   27   63 1
    56   28   29 1
    57   28   64 1
    58   28   83 1
    59   29   30 1
    60   29   65 1
    61   29   66 1
    62   30   31 1
    63   30   67 1
    64   30   68 1
    65   31   32 1
    66   31   69 1
    67   31   70 1
    68   32   33 1
    69   32   71 1
    70   32   72 1
    71   33   34 1
    72   33   73 1
    73   33   84 1
    74   34   35 1
    75   34   74 1
    76   34   75 1
    77   35   36 1
    78   35   76 1
    79   35   77 1
    80   36   37 1
    81   36   78 1
    82   36   79 1
    83   37   80 1
    84   37   81 1
    85   37   82 1
@<TRIPOS>MOLECULE
CHEMBL192429
   83    84     0     0     0
SMALL
USER_CHARGES

@<TRIPOS>ATOM
      1 C1         -0.0187    1.5258    0.0104 C.3       1 <0>        -0.1558
      2 C2          0.0021   -0.0041    0.0020 C.3       1 <0>        -0.1069
      3 C3          0.7182   -0.4975   -1.2568 C.3       1 <0>        -0.1417
      4 C4          0.7386   -2.0043   -1.2651 C.2       1 <0>         0.5223
      5 O1          0.2305   -2.6227   -0.3539 O.2       1 <0>        -0.5121
      6 N1          1.3217   -2.6648   -2.2851 N.am      1 <0>        -0.7237
      7 C5          1.3415   -4.1296   -2.2931 C.3       1 <0>         0.1462
      8 H1          1.8517   -4.4811   -3.1899 H         1 <0>         0.1091
      9 C6          2.0815   -4.6364   -1.0536 C.3       1 <0>        -0.0910
     10 C7          3.5274   -4.2177   -1.1255 C.ar      1 <0>        -0.0872
     11 C8          4.4537   -5.0419   -1.7387 C.ar      1 <0>        -0.1145
     12 C9          5.7792   -4.6633   -1.8074 C.ar      1 <0>        -0.1100
     13 C10         6.1835   -3.4485   -1.2576 C.ar      1 <0>        -0.0348
     14 C11         5.2461   -2.6222   -0.6412 C.ar      1 <0>        -0.1073
     15 C12         3.9222   -3.0081   -0.5831 C.ar      1 <0>        -0.0998
     16 C13         7.6074   -3.0364   -1.3280 C.ar      1 <0>        -0.0561
     17 C14         8.5438   -3.8603   -1.9492 C.ar      1 <0>        -0.1101
     18 C15         9.8667   -3.4718   -2.0122 C.ar      1 <0>        -0.1174
     19 C16        10.2636   -2.2674   -1.4598 C.ar      1 <0>        -0.1129
     20 C17         9.3383   -1.4459   -0.8416 C.ar      1 <0>        -0.1158
     21 C18         8.0117   -1.8216   -0.7783 C.ar      1 <0>        -0.1087
     22 C19        -0.0723   -4.6512   -2.2824 C.2       1 <0>         0.5044
     23 O2         -0.9793   -3.9371   -1.9107 O.2       1 <0>        -0.4902
     24 N2         -0.3287   -5.9113   -2.6860 N.am      1 <0>        -0.7420
     25 C20        -1.7031   -6.4184   -2.6756 C.3       1 <0>         0.1252
     26 C21        -1.7172   -7.8640   -3.1766 C.3       1 <0>        -0.1638
     27 C22        -3.1526   -8.3936   -3.1657 C.3       1 <0>        -0.0058
     28 N3         -3.1661   -9.7815   -3.6468 N.4       1 <0>        -0.5092
     29 C23        -4.5442  -10.2900   -3.6364 C.3       1 <0>        -0.0099
     30 C24        -4.5583  -11.7355   -4.1374 C.3       1 <0>        -0.1490
     31 C25        -5.9937  -12.2651   -4.1265 C.3       1 <0>        -0.1498
     32 C26        -6.0078  -13.7107   -4.6275 C.3       1 <0>        -0.0094
     33 N4         -7.3859  -14.2192   -4.6171 N.4       1 <0>        -0.5095
     34 C27        -7.3994  -15.6071   -5.0982 C.3       1 <0>        -0.0074
     35 C28        -8.8348  -16.1367   -5.0873 C.3       1 <0>        -0.1523
     36 C29        -8.8489  -17.5823   -5.5883 C.3       1 <0>         0.0630
     37 N5        -10.2270  -18.0907   -5.5779 N.3       1 <0>        -0.8529
     38 H2          1.0039    1.9031    0.0027 H         1 <0>         0.0560
     39 H3         -0.5459    1.8868   -0.8726 H         1 <0>         0.0547
     40 H4         -0.5289    1.8773    0.9072 H         1 <0>         0.0599
     41 H5          0.5293   -0.3651    0.8851 H         1 <0>         0.0682
     42 H6         -1.0205   -0.3814    0.0098 H         1 <0>         0.0682
     43 H7          0.1910   -0.1364   -2.1398 H         1 <0>         0.0924
     44 H8          1.7408   -0.1202   -1.2645 H         1 <0>         0.0937
     45 H9          1.7281   -2.1702   -3.0138 H         1 <0>         0.4079
     46 H10         1.6246   -4.2129   -0.1592 H         1 <0>         0.1040
     47 H11         2.0198   -5.7239   -1.0129 H         1 <0>         0.0790
     48 H12         4.1393   -5.9834   -2.1641 H         1 <0>         0.1202
     49 H13         6.5018   -5.3077   -2.2860 H         1 <0>         0.1264
     50 H14         5.5542   -1.6797   -0.2131 H         1 <0>         0.1274
     51 H15         3.1940   -2.3663   -0.1097 H         1 <0>         0.1195
     52 H16         8.2351   -4.8012   -2.3802 H         1 <0>         0.1236
     53 H17        10.5934   -4.1096   -2.4934 H         1 <0>         0.1261
     54 H18        11.2998   -1.9675   -1.5110 H         1 <0>         0.1261
     55 H19         9.6536   -0.5067   -0.4116 H         1 <0>         0.1272
     56 H20         7.2892   -1.1774   -0.2993 H         1 <0>         0.1250
     57 H21         0.3967   -6.4825   -2.9833 H         1 <0>         0.4015
     58 H22        -2.0961   -6.3822   -1.6595 H         1 <0>         0.0777
     59 H23        -2.3227   -5.8021   -3.3270 H         1 <0>         0.0764
     60 H24        -1.3242   -7.9002   -4.1927 H         1 <0>         0.0964
     61 H25        -1.0976   -8.4803   -2.5252 H         1 <0>         0.0968
     62 H26        -3.5455   -8.3573   -2.1497 H         1 <0>         0.1390
     63 H27        -3.7722   -7.7772   -3.8171 H         1 <0>         0.1387
     64 H28        -2.8023   -9.8150   -4.5873 H         1 <0>         0.4310
     65 H29        -4.9372  -10.2537   -2.6203 H         1 <0>         0.1372
     66 H30        -5.1639   -9.6736   -4.2877 H         1 <0>         0.1372
     67 H31        -4.1654  -11.7718   -5.1534 H         1 <0>         0.0999
     68 H32        -3.9387  -12.3519   -3.4860 H         1 <0>         0.0998
     69 H33        -6.3867  -12.2289   -3.1105 H         1 <0>         0.1000
     70 H34        -6.6133  -11.6488   -4.7779 H         1 <0>         0.1004
     71 H35        -5.6148  -13.7469   -5.6436 H         1 <0>         0.1363
     72 H36        -5.3882  -14.3270   -3.9762 H         1 <0>         0.1357
     73 H37        -7.7497  -14.1856   -3.6766 H         1 <0>         0.4306
     74 H38        -7.0065  -15.6433   -6.1142 H         1 <0>         0.1358
     75 H39        -6.7798  -16.2234   -4.4468 H         1 <0>         0.1335
     76 H40        -9.2278  -16.1005   -4.0712 H         1 <0>         0.0870
     77 H41        -9.4544  -15.5203   -5.7387 H         1 <0>         0.0979
     78 H42        -8.4559  -17.6185   -6.6044 H         1 <0>         0.0834
     79 H43        -8.2293  -18.1986   -4.9369 H         1 <0>         0.0383
     80 H44       -10.2630  -19.0446   -5.9049 H         1 <0>         0.3609
     81 H45       -10.6362  -18.0077   -4.6593 H         1 <0>         0.3469
     82 H46        -2.5925  -10.3520   -3.0438 H         1 <0>         0.4312
     83 H47        -7.9595  -13.6486   -5.2201 H         1 <0>         0.4317
@<TRIPOS>BOND
     1    1    2 1
     2    1   38 1
     3    1   39 1
     4    1   40 1
     5    2    3 1
     6    2   41 1
     7    2   42 1
     8    3    4 1
     9    3   43 1
    10    3   44 1
    11    4    5 2
    12    4    6 am
    13    6    7 1
    14    6   45 1
    15    7    8 1
    16    7    9 1
    17    7   22 1
    18    9   10 1
    19    9   46 1
    20    9   47 1
    21   10   15 ar
    22   10   11 ar
    23   11   12 ar
    24   11   48 1
    25   12   13 ar
    26   12   49 1
    27   13   14 ar
    28   13   16 1
    29   14   15 ar
    30   14   50 1
    31   15   51 1
    32   16   21 ar
    33   16   17 ar
    34   17   18 ar
    35   17   52 1
    36   18   19 ar
    37   18   53 1
    38   19   20 ar
    39   19   54 1
    40   20   21 ar
    41   20   55 1
    42   21   56 1
    43   22   23 2
    44   22   24 am
    45   24   25 1
    46   24   57 1
    47   25   26 1
    48   25   58 1
    49   25   59 1
    50   26   27 1
    51   26   60 1
    52   26   61 1
    53   27   28 1
    54   27   62 1
    55   27   63 1
    56   28   29 1
    57   28   64 1
    58   28   82 1
    59   29   30 1
    60   29   65 1
    61   29   66 1
    62   30   31 1
    63   30   67 1
    64   30   68 1
    65   31   32 1
    66   31   69 1
    67   31   70 1
    68   32   33 1
    69   32   71 1
    70   32   72 1
    71   33   34 1
    72   33   73 1
    73   33   83 1
    74   34   35 1
    75   34   74 1
    76   34   75 1
    77   35   36 1
    78   35   76 1
    79   35   77 1
    80   36   37 1
    81   36   78 1
    82   36   79 1
    83   37   80 1
    84   37   81 1
@<TRIPOS>MOLECULE
CHEMBL129285
   46    49     0     0     0
SMALL
USER_CHARGES

@<TRIPOS>ATOM
      1 C1         -0.0281    0.8341    0.5433 C.2       1 <0>        -0.0061
      2 C2          1.2373    1.0101    0.9688 C.2       1 <0>        -0.0539
      3 N1          2.0591    0.6094   -0.0526 N.pl3     1 <0>        -0.4358
      4 C3          1.2586    0.2007   -1.0709 C.2       1 <0>         0.2383
      5 N2          0.0140    0.3398   -0.7028 N.2       1 <0>        -0.4754
      6 C4          3.4618    0.6200   -0.0474 C.ar      1 <0>         0.2077
      7 C5          4.1553   -0.0863    0.9221 C.ar      1 <0>        -0.1236
      8 C6          5.5446   -0.0767    0.9278 C.ar      1 <0>         0.1946
      9 C7          6.2374    0.6468   -0.0456 C.ar      1 <0>         0.1254
     10 C8          5.5329    1.3531   -1.0145 C.ar      1 <0>        -0.0394
     11 C9          4.1540    1.3346   -1.0186 C.ar      1 <0>        -0.0448
     12 N3          3.4087    2.0830   -2.0557 N.pl3     1 <0>         0.0317
     13 O1          4.0040    2.6061   -2.9687 O.2       1 <0>        -0.1426
     14 O2          2.2048    2.1712   -1.9897 O.3       1 <0>        -0.1341
     15 N4          7.6299    0.6678   -0.0546 N.am      1 <0>        -0.6312
     16 H1          8.1022    1.1737   -0.7342 H         1 <0>         0.4310
     17 C10         8.3225   -0.0135    0.8804 C.2       1 <0>         0.5122
     18 O3          9.5371    0.0022    0.8768 O.2       1 <0>        -0.4457
     19 C11         7.5825   -0.7862    1.9192 C.2       1 <0>         0.5085
     20 O4          8.1883   -1.4061    2.7702 O.2       1 <0>        -0.4381
     21 N5          6.2342   -0.7888    1.9052 N.am      1 <0>        -0.5229
     22 C12         5.4937   -1.5422    2.9203 C.3       1 <0>         0.0950
     23 C13         5.2470   -2.9666    2.4191 C.3       1 <0>        -0.1055
     24 C14         4.3288   -2.9250    1.1960 C.3       1 <0>        -0.1205
     25 C15         4.0822   -4.3494    0.6948 C.3       1 <0>        -0.1187
     26 C16         3.4200   -5.1721    1.8019 C.3       1 <0>        -0.1212
     27 C17         4.3381   -5.2136    3.0251 C.3       1 <0>        -0.1194
     28 C18         4.5848   -3.7892    3.5262 C.3       1 <0>        -0.1108
     29 H2         -0.9224    1.0494    1.1094 H         1 <0>         0.1770
     30 H3          1.5457    1.3934    1.9303 H         1 <0>         0.1777
     31 H4          1.5954   -0.1761   -2.0253 H         1 <0>         0.1991
     32 H5          3.6160   -0.6439    1.6735 H         1 <0>         0.1743
     33 H6          6.0667    1.9134   -1.7679 H         1 <0>         0.1788
     34 H7          6.0740   -1.5768    3.8423 H         1 <0>         0.1106
     35 H8          4.5382   -1.0533    3.1105 H         1 <0>         0.0988
     36 H9          6.1972   -3.4249    2.1448 H         1 <0>         0.0825
     37 H10         3.3787   -2.4667    1.4703 H         1 <0>         0.0666
     38 H11         4.8006   -2.3390    0.4073 H         1 <0>         0.0579
     39 H12         3.4280   -4.3198   -0.1766 H         1 <0>         0.0646
     40 H13         5.0323   -4.8077    0.4205 H         1 <0>         0.0622
     41 H14         2.4698   -4.7137    2.0763 H         1 <0>         0.0634
     42 H15         3.2442   -6.1868    1.4449 H         1 <0>         0.0642
     43 H16         3.8664   -5.7997    3.8138 H         1 <0>         0.0672
     44 H17         5.2883   -5.6719    2.7508 H         1 <0>         0.0632
     45 H18         5.2390   -3.8188    4.3976 H         1 <0>         0.0695
     46 H19         3.6347   -3.3309    3.8006 H         1 <0>         0.0678
@<TRIPOS>BOND
     1    1    5 1
     2    1    2 2
     3    1   29 1
     4    2    3 1
     5    2   30 1
     6    3    4 1
     7    3    6 1
     8    4    5 2
     9    4   31 1
    10    6   11 ar
    11    6    7 ar
    12    7    8 ar
    13    7   32 1
    14    8   21 1
    15    8    9 ar
    16    9   10 ar
    17    9   15 1
    18   10   11 ar
    19   10   33 1
    20   11   12 1
    21   12   13 2
    22   12   14 1
    23   15   16 1
    24   15   17 am
    25   17   18 2
    26   17   19 1
    27   19   20 2
    28   19   21 am
    29   21   22 1
    30   22   23 1
    31   22   34 1
    32   22   35 1
    33   23   28 1
    34   23   24 1
    35   23   36 1
    36   24   25 1
    37   24   37 1
    38   24   38 1
    39   25   26 1
    40   25   39 1
    41   25   40 1
    42   26   27 1
    43   26   41 1
    44   26   42 1
    45   27   28 1
    46   27   43 1
    47   27   44 1
    48   28   45 1
    49   28   46 1
@<TRIPOS>MOLECULE
CHEMBL129285
   45    48     0     0     0
SMALL
USER_CHARGES

@<TRIPOS>ATOM
      1 C1         -0.0290    0.8286    0.5390 C.2       1 <0>        -0.0249
      2 C2          1.2355    1.0066    0.9659 C.2       1 <0>        -0.0519
      3 N1          2.0592    0.6067   -0.0548 N.pl3     1 <0>        -0.4103
      4 C3          1.2600    0.1964   -1.0740 C.2       1 <0>         0.2337
      5 N2          0.0151    0.3339   -0.7070 N.2       1 <0>        -0.4912
      6 C4          3.4596    0.6188   -0.0479 C.ar      1 <0>         0.1178
      7 C5          4.1498   -0.0884    0.9221 C.ar      1 <0>        -0.1094
      8 C6          5.5391   -0.0764    0.9281 C.ar      1 <0>         0.1024
      9 C7          6.2351    0.6549   -0.0524 C.ar      1 <0>         0.1848
     10 C8          5.5150    1.3640   -1.0255 C.ar      1 <0>        -0.0514
     11 C9          4.1518    1.3380   -1.0211 C.ar      1 <0>        -0.0344
     12 N3          3.4002    2.0846   -2.0550 N.pl3     1 <0>         0.0387
     13 O1          3.9904    2.6099   -2.9701 O.2       1 <0>        -0.1626
     14 O2          2.1963    2.1690   -1.9844 O.3       1 <0>        -0.1602
     15 N4          7.5833    0.6780   -0.0629 N.2       1 <0>        -0.5997
     16 C10         8.2755    0.0255    0.8329 C.2       1 <0>         0.4242
     17 O3          9.6298    0.0647    0.8014 O.3       1 <0>        -0.6055
     18 C11         7.5870   -0.7518    1.8768 C.2       1 <0>         0.4768
     19 O4          8.2265   -1.3619    2.7142 O.2       1 <0>        -0.5025
     20 N5          6.2365   -0.7801    1.8928 N.am      1 <0>        -0.5164
     21 C12         5.5211   -1.5440    2.9179 C.3       1 <0>         0.1001
     22 C13         5.2849   -2.9708    2.4187 C.3       1 <0>        -0.1024
     23 C14         4.3477   -2.9395    1.2097 C.3       1 <0>        -0.1180
     24 C15         4.1115   -4.3664    0.7104 C.3       1 <0>        -0.1183
     25 C16         3.4767   -5.1986    1.8264 C.3       1 <0>        -0.1181
     26 C17         4.4138   -5.2299    3.0354 C.3       1 <0>        -0.1175
     27 C18         4.6500   -3.8030    3.5346 C.3       1 <0>        -0.1095
     28 H1         -0.9242    1.0427    1.1040 H         1 <0>         0.1681
     29 H2          1.5421    1.3910    1.9275 H         1 <0>         0.1695
     30 H3          1.5981   -0.1802   -2.0281 H         1 <0>         0.1924
     31 H4          3.6098   -0.6474    1.6720 H         1 <0>         0.1492
     32 H5          6.0412    1.9278   -1.7816 H         1 <0>         0.1648
     33 H6          6.1158   -1.5723    3.8310 H         1 <0>         0.0959
     34 H7          4.5625   -1.0675    3.1233 H         1 <0>         0.0846
     35 H8          6.2365   -3.4167    2.1293 H         1 <0>         0.0785
     36 H9          3.3961   -2.4936    1.4990 H         1 <0>         0.0626
     37 H10         4.8000   -2.3466    0.4147 H         1 <0>         0.0653
     38 H11         3.4439   -4.3441   -0.1509 H         1 <0>         0.0615
     39 H12         5.0631   -4.8123    0.4211 H         1 <0>         0.0605
     40 H13         2.5251   -4.7527    2.1157 H         1 <0>         0.0610
     41 H14         3.3084   -6.2151    1.4707 H         1 <0>         0.0593
     42 H15         3.9615   -5.8228    3.8304 H         1 <0>         0.0616
     43 H16         5.3654   -5.6758    2.7460 H         1 <0>         0.0617
     44 H17         5.3177   -3.8253    4.3959 H         1 <0>         0.0653
     45 H18         3.6984   -3.3571    3.8240 H         1 <0>         0.0636
@<TRIPOS>BOND
     1    1    5 1
     2    1    2 2
     3    1   28 1
     4    2    3 1
     5    2   29 1
     6    3    4 1
     7    3    6 1
     8    4    5 2
     9    4   30 1
    10    6   11 ar
    11    6    7 ar
    12    7    8 ar
    13    7   31 1
    14    8   20 1
    15    8    9 ar
    16    9   10 ar
    17    9   15 1
    18   10   11 ar
    19   10   32 1
    20   11   12 1
    21   12   13 2
    22   12   14 1
    23   15   16 2
    24   16   17 1
    25   16   18 1
    26   18   19 2
    27   18   20 am
    28   20   21 1
    29   21   22 1
    30   21   33 1
    31   21   34 1
    32   22   27 1
    33   22   23 1
    34   22   35 1
    35   23   24 1
    36   23   36 1
    37   23   37 1
    38   24   25 1
    39   24   38 1
    40   24   39 1
    41   25   26 1
    42   25   40 1
    43   25   41 1
    44   26   27 1
    45   26   42 1
    46   26   43 1
    47   27   44 1
    48   27   45 1
@<TRIPOS>MOLECULE
CHEMBL275334
   51    54     0     0     0
SMALL
USER_CHARGES

@<TRIPOS>ATOM
      1 C1          0.3685    0.5245    2.5936 C.ar      1 <0>        -0.0958
      2 C2          1.5062    1.3023    2.4712 C.ar      1 <0>        -0.1307
      3 C3          2.6986    0.7290    2.0803 C.ar      1 <0>        -0.0624
      4 C4          2.7555   -0.6388    1.8082 C.ar      1 <0>        -0.1351
      5 C5          1.6041   -1.4177    1.9336 C.ar      1 <0>        -0.0840
      6 C6          0.4181   -0.8319    2.3253 C.ar      1 <0>        -0.1259
      7 C7          4.0299   -1.2598    1.3884 C.2       1 <0>         0.5572
      8 O1          5.0309   -0.5790    1.2795 O.2       1 <0>        -0.5428
      9 N1          4.0816   -2.5809    1.1263 N.am      1 <0>        -0.7187
     10 C8          5.3443   -3.1962    0.7103 C.3       1 <0>         0.1983
     11 C9          5.1332   -4.6707    0.4816 C.2       1 <0>        -0.1860
     12 C10         5.2685   -5.6914    1.4439 C.2       1 <0>        -0.1718
     13 C11         4.9933   -6.8622    0.8336 C.2       1 <0>         0.0011
     14 N2          4.6924   -6.6018   -0.4726 N.pl3     1 <0>        -0.4074
     15 C12         4.7746   -5.2546   -0.6800 C.2       1 <0>         0.0149
     16 C13         4.3506   -7.5586   -1.4395 C.ar      1 <0>         0.1848
     17 C14         3.2764   -8.4069   -1.2237 C.ar      1 <0>        -0.1158
     18 C15         2.9368   -9.3547   -2.1811 C.ar      1 <0>         0.2049
     19 C16         3.6816   -9.4489   -3.3589 C.ar      1 <0>         0.1109
     20 C17         4.7584   -8.5936   -3.5666 C.ar      1 <0>        -0.0567
     21 C18         5.0867   -7.6507   -2.6153 C.ar      1 <0>        -0.1923
     22 C19         6.2503   -6.7218   -2.8482 C.3       1 <0>         0.5180
     23 F1          6.9268   -7.1043   -4.0114 F         1 <0>        -0.1756
     24 F2          5.7800   -5.4121   -2.9915 F         1 <0>        -0.1714
     25 F3          7.1243   -6.7868   -1.7577 F         1 <0>        -0.1669
     26 N3          3.3555  -10.3935   -4.3290 N.am      1 <0>        -0.6312
     27 H1          3.8790  -10.4517   -5.1436 H         1 <0>         0.4218
     28 C20         2.3134  -11.2274   -4.1375 C.2       1 <0>         0.5168
     29 O2          2.0255  -12.0531   -4.9806 O.2       1 <0>        -0.4708
     30 C21         1.5182  -11.1262   -2.8801 C.2       1 <0>         0.5080
     31 O3          0.5758  -11.8684   -2.6889 O.2       1 <0>        -0.4548
     32 N4          1.8562  -10.2033   -1.9570 N.am      1 <0>        -0.4915
     33 C22         1.0847  -10.0929   -0.7165 C.3       1 <0>         0.0197
     34 C23        -0.0460   -9.1163   -0.9134 C.2       1 <0>         0.4874
     35 O4         -0.1938   -8.5637   -1.9901 O.co2     1 <0>        -0.6764
     36 O5         -0.8131   -8.8789    0.0040 O.co2     1 <0>        -0.6814
     37 H2         -0.5615    0.9774    2.9043 H         1 <0>         0.1262
     38 H3          1.4606    2.3606    2.6817 H         1 <0>         0.1280
     39 H4          3.5859    1.3372    1.9848 H         1 <0>         0.1348
     40 H5          1.6415   -2.4765    1.7242 H         1 <0>         0.1285
     41 H6         -0.4736   -1.4334    2.4227 H         1 <0>         0.1308
     42 H7          3.2828   -3.1242    1.2131 H         1 <0>         0.4033
     43 H8          5.6884   -2.7309   -0.2134 H         1 <0>         0.0725
     44 H9          6.0925   -3.0529    1.4899 H         1 <0>         0.0759
     45 H10         5.5428   -5.5602    2.4803 H         1 <0>         0.1425
     46 H11         5.0085   -7.8372    1.2978 H         1 <0>         0.1675
     47 H12         4.5874   -4.7450   -1.6136 H         1 <0>         0.1765
     48 H13         2.7034   -8.3314   -0.3114 H         1 <0>         0.1601
     49 H14         5.3360   -8.6652   -4.4764 H         1 <0>         0.1592
     50 H15         0.6794  -11.0697   -0.4526 H         1 <0>         0.1027
     51 H16         1.7339   -9.7404    0.0850 H         1 <0>         0.0930
@<TRIPOS>BOND
     1    1    6 ar
     2    1    2 ar
     3    1   37 1
     4    2    3 ar
     5    2   38 1
     6    3    4 ar
     7    3   39 1
     8    4    5 ar
     9    4    7 1
    10    5    6 ar
    11    5   40 1
    12    6   41 1
    13    7    8 2
    14    7    9 am
    15    9   10 1
    16    9   42 1
    17   10   11 1
    18   10   43 1
    19   10   44 1
    20   11   15 2
    21   11   12 1
    22   12   13 2
    23   12   45 1
    24   13   14 1
    25   13   46 1
    26   14   15 1
    27   14   16 1
    28   15   47 1
    29   16   21 ar
    30   16   17 ar
    31   17   18 ar
    32   17   48 1
    33   18   32 1
    34   18   19 ar
    35   19   20 ar
    36   19   26 1
    37   20   21 ar
    38   20   49 1
    39   21   22 1
    40   22   23 1
    41   22   24 1
    42   22   25 1
    43   26   27 1
    44   26   28 am
    45   28   29 2
    46   28   30 1
    47   30   31 2
    48   30   32 am
    49   32   33 1
    50   33   34 1
    51   33   50 1
    52   33   51 1
    53   34   35 2
    54   34   36 1
@<TRIPOS>MOLECULE
CHEMBL25529
   36    40     0     0     0
SMALL
USER_CHARGES

@<TRIPOS>ATOM
      1 C1         -0.0166    1.3750    0.0096 C.ar      1 <0>        -0.1208
      2 C2          1.1679    2.0902    0.0021 C.ar      1 <0>        -0.1042
      3 C3          2.3818    1.4245   -0.0134 C.ar      1 <0>        -0.0321
      4 C4          2.4102    0.0481   -0.0211 C.ar      1 <0>        -0.0604
      5 C5          1.2236   -0.6827   -0.0132 C.ar      1 <0>        -0.0419
      6 C6          0.0021   -0.0041    0.0020 C.ar      1 <0>        -0.1103
      7 C7          1.5391   -2.1309   -0.0240 C.2       1 <0>         0.0828
      8 C8          2.8688   -2.3149   -0.0382 C.2       1 <0>         0.0575
      9 N1          3.4189   -3.5827   -0.0513 N.pl3     1 <0>        -0.3751
     10 C9          4.7004   -4.0338   -0.0665 C.2       1 <0>         0.0025
     11 C10         4.6454   -5.3895   -0.0742 C.2       1 <0>        -0.4526
     12 N2          3.3663   -5.7600   -0.0639 N.2       1 <0>        -0.3535
     13 C11         2.6059   -4.6848   -0.0500 C.2       1 <0>         0.0734
     14 C12         1.1501   -4.4830   -0.0345 C.2       1 <0>         0.6096
     15 N3          0.6710   -3.2235   -0.0217 N.am      1 <0>        -0.6314
     16 O1          0.3917   -5.4355   -0.0333 O.2       1 <0>        -0.5164
     17 P1          6.0731   -6.5083   -0.0959 P.3       1 <0>         2.2386
     18 O2          6.4995   -6.8394    1.3748 O.2       1 <0>        -1.1746
     19 O3          5.6875   -7.8328   -0.8385 O.3       1 <0>        -1.1699
     20 O4          7.2655   -5.8190   -0.8427 O.3       1 <0>        -1.1728
     21 C13         3.5347   -0.9563   -0.0376 C.3       1 <0>        -0.0344
     22 C14         3.6705    2.2057   -0.0226 C.3       1 <0>         0.0319
     23 C15         4.1500    2.3673   -1.4421 C.2       1 <0>         0.0566
     24 N4          3.8511    3.3587   -2.2690 N.2       1 <0>        -0.3907
     25 N5          4.4566    3.1316   -3.3845 N.2       1 <0>        -0.2067
     26 N6          5.1228    2.0344   -3.2843 N.2       1 <0>        -0.1949
     27 N7          4.9562    1.5483   -2.1018 N.2       1 <0>        -0.3740
     28 H1         -0.9607    1.8993    0.0259 H         1 <0>         0.1212
     29 H2          1.1455    3.1700    0.0081 H         1 <0>         0.1272
     30 H3         -0.9250   -0.5581    0.0082 H         1 <0>         0.1165
     31 H4          5.5943   -3.4276   -0.0722 H         1 <0>         0.1884
     32 H5          4.1375   -0.8320   -0.9372 H         1 <0>         0.1300
     33 H6          4.1552   -0.8415    0.8512 H         1 <0>         0.1121
     34 H7          3.5029    3.1883    0.4184 H         1 <0>         0.0776
     35 H8          4.4235    1.6712    0.5567 H         1 <0>         0.0804
     36 H9         -0.2875   -3.0749   -0.0114 H         1 <0>         0.4102
@<TRIPOS>BOND
     1    1    6 ar
     2    1    2 ar
     3    1   28 1
     4    2    3 ar
     5    2   29 1
     6    3    4 ar
     7    3   22 1
     8    4   21 1
     9    4    5 ar
    10    5    6 ar
    11    5    7 1
    12    6   30 1
    13    7   15 1
    14    7    8 2
    15    8    9 1
    16    8   21 1
    17    9   13 1
    18    9   10 1
    19   10   11 2
    20   10   31 1
    21   11   12 1
    22   11   17 1
    23   12   13 2
    24   13   14 1
    25   14   15 am
    26   14   16 2
    27   15   36 1
    28   17   18 2
    29   17   19 1
    30   17   20 1
    31   21   32 1
    32   21   33 1
    33   22   34 1
    34   22   35 1
    35   22   23 1
    36   23   24 2
    37   23   27 1
    38   24   25 1
    39   25   26 2
    40   26   27 1
@<TRIPOS>MOLECULE
CHEMBL25529
   36    40     0     0     0
SMALL
USER_CHARGES

@<TRIPOS>ATOM
      1 C1         -0.0166    1.3752    0.0096 C.ar      1 <0>        -0.1343
      2 C2          1.1682    2.0896    0.0021 C.ar      1 <0>        -0.1120
      3 C3          2.3807    1.4225   -0.0135 C.ar      1 <0>        -0.0483
      4 C4          2.4080    0.0451   -0.0212 C.ar      1 <0>        -0.0646
      5 C5          1.2216   -0.6833   -0.0133 C.ar      1 <0>        -0.0256
      6 C6          0.0021   -0.0041    0.0020 C.ar      1 <0>        -0.0938
      7 C7          1.5350   -2.1353   -0.0243 C.2       1 <0>         0.1761
      8 C8          2.8814   -2.3156   -0.0386 C.2       1 <0>        -0.1305
      9 N1          3.4093   -3.5771   -0.0506 N.pl3     1 <0>        -0.3131
     10 C9          4.6813   -4.0613   -0.0654 C.2       1 <0>        -0.0339
     11 C10         4.5935   -5.4128   -0.0715 C.2       1 <0>        -0.5344
     12 N2          3.3045   -5.7548   -0.0608 N.2       1 <0>        -0.4207
     13 C11         2.5656   -4.6591   -0.0480 C.2       1 <0>         0.1185
     14 C12         1.1679   -4.4306   -0.0330 C.2       1 <0>         0.4940
     15 N3          0.7064   -3.2022   -0.0222 N.2       1 <0>        -0.6130
     16 O1          0.3085   -5.4788   -0.0300 O.3       1 <0>        -0.6739
     17 P1          5.9945   -6.5650   -0.0915 P.3       1 <0>         2.3582
     18 O2          6.3777   -6.8845   -1.5537 O.2       1 <0>        -1.1151
     19 O3          7.2008   -5.9214    0.6281 O.3       1 <0>        -1.1153
     20 O4          5.5817   -7.9251    0.6646 O.3       1 <0>        -0.8991
     21 C13         3.5371   -0.9551   -0.0378 C.3       1 <0>        -0.0068
     22 C14         3.6702    2.2023   -0.0226 C.3       1 <0>         0.0363
     23 C15         4.1498    2.3634   -1.4422 C.2       1 <0>         0.0638
     24 N4          3.8520    3.3551   -2.2690 N.2       1 <0>        -0.3923
     25 N5          4.4572    3.1275   -3.3845 N.2       1 <0>        -0.2105
     26 N6          5.1222    2.0295   -3.2845 N.2       1 <0>        -0.2009
     27 N7          4.9551    1.5436   -2.1019 N.2       1 <0>        -0.3748
     28 H1         -0.9605    1.8999    0.0260 H         1 <0>         0.1151
     29 H2          1.1468    3.1693    0.0081 H         1 <0>         0.1198
     30 H3         -0.9253   -0.5576    0.0076 H         1 <0>         0.1209
     31 H4          5.5899   -3.4774   -0.0714 H         1 <0>         0.1744
     32 H5          6.2846   -8.5886    0.6923 H         1 <0>         0.3998
     33 H6          4.1395   -0.8274   -0.9372 H         1 <0>         0.1040
     34 H7          4.1572   -0.8370    0.8508 H         1 <0>         0.0833
     35 H8          3.5037    3.1851    0.4183 H         1 <0>         0.0728
     36 H9          4.4226    1.6670    0.5565 H         1 <0>         0.0757
@<TRIPOS>BOND
     1    1    6 ar
     2    1    2 ar
     3    1   28 1
     4    2    3 ar
     5    2   29 1
     6    3    4 ar
     7    3   22 1
     8    4   21 1
     9    4    5 ar
    10    5    6 ar
    11    5    7 1
    12    6   30 1
    13    7   15 1
    14    7    8 2
    15    8    9 1
    16    8   21 1
    17    9   13 1
    18    9   10 1
    19   10   11 2
    20   10   31 1
    21   11   12 1
    22   11   17 1
    23   12   13 2
    24   13   14 1
    25   14   15 2
    26   14   16 1
    27   17   18 2
    28   17   19 1
    29   17   20 1
    30   20   32 1
    31   21   33 1
    32   21   34 1
    33   22   35 1
    34   22   36 1
    35   22   23 1
    36   23   24 2
    37   23   27 1
    38   24   25 1
    39   25   26 2
    40   26   27 1
@<TRIPOS>MOLECULE
CHEMBL25529
   37    41     0     0     0
SMALL
USER_CHARGES

@<TRIPOS>ATOM
      1 C1         -0.0166    1.3750    0.0096 C.ar      1 <0>        -0.1191
      2 C2          1.1679    2.0902    0.0021 C.ar      1 <0>        -0.0929
      3 C3          2.3818    1.4245   -0.0134 C.ar      1 <0>        -0.0324
      4 C4          2.4102    0.0481   -0.0211 C.ar      1 <0>        -0.0545
      5 C5          1.2236   -0.6827   -0.0132 C.ar      1 <0>        -0.0598
      6 C6          0.0021   -0.0041    0.0020 C.ar      1 <0>        -0.1016
      7 C7          1.5391   -2.1309   -0.0240 C.2       1 <0>         0.1225
      8 C8          2.8688   -2.3149   -0.0382 C.2       1 <0>         0.0253
      9 N1          3.4189   -3.5827   -0.0513 N.pl3     1 <0>        -0.3582
     10 C9          4.7004   -4.0338   -0.0665 C.2       1 <0>         0.0432
     11 C10         4.6454   -5.3895   -0.0742 C.2       1 <0>        -0.5224
     12 N2          3.3663   -5.7600   -0.0639 N.2       1 <0>        -0.3675
     13 C11         2.6059   -4.6848   -0.0500 C.2       1 <0>         0.1013
     14 C12         1.1501   -4.4830   -0.0345 C.2       1 <0>         0.6078
     15 N3          0.6710   -3.2235   -0.0217 N.am      1 <0>        -0.6288
     16 O1          0.3917   -5.4355   -0.0333 O.2       1 <0>        -0.5044
     17 P1          6.0731   -6.5083   -0.0959 P.3       1 <0>         2.3371
     18 O2          6.4633   -6.8171   -1.5586 O.2       1 <0>        -1.0983
     19 O3          7.2641   -5.8374    0.6241 O.3       1 <0>        -1.0984
     20 O4          5.6926   -7.8786    0.6587 O.3       1 <0>        -0.8998
     21 C13         3.5347   -0.9563   -0.0376 C.3       1 <0>        -0.0308
     22 C14         3.6705    2.2057   -0.0226 C.3       1 <0>         0.0313
     23 C15         4.1500    2.3673   -1.4421 C.2       1 <0>         0.0544
     24 N4          3.8511    3.3587   -2.2690 N.2       1 <0>        -0.3871
     25 N5          4.4566    3.1316   -3.3845 N.2       1 <0>        -0.2014
     26 N6          5.1228    2.0344   -3.2843 N.2       1 <0>        -0.1947
     27 N7          4.9562    1.5483   -2.1018 N.2       1 <0>        -0.3790
     28 H1         -0.9607    1.8993    0.0259 H         1 <0>         0.1260
     29 H2          1.1455    3.1700    0.0081 H         1 <0>         0.1318
     30 H3         -0.9250   -0.5581    0.0082 H         1 <0>         0.1192
     31 H4          5.5943   -3.4276   -0.0722 H         1 <0>         0.1986
     32 H5          6.4109   -8.5255    0.6855 H         1 <0>         0.4088
     33 H6          4.1375   -0.8320   -0.9372 H         1 <0>         0.1315
     34 H7          4.1552   -0.8415    0.8512 H         1 <0>         0.1138
     35 H8          3.5029    3.1883    0.4184 H         1 <0>         0.0804
     36 H9          4.4235    1.6712    0.5567 H         1 <0>         0.0804
     37 H10        -0.2875   -3.0749   -0.0114 H         1 <0>         0.4179
@<TRIPOS>BOND
     1    1    6 ar
     2    1    2 ar
     3    1   28 1
     4    2    3 ar
     5    2   29 1
     6    3    4 ar
     7    3   22 1
     8    4   21 1
     9    4    5 ar
    10    5    6 ar
    11    5    7 1
    12    6   30 1
    13    7   15 1
    14    7    8 2
    15    8    9 1
    16    8   21 1
    17    9   13 1
    18    9   10 1
    19   10   11 2
    20   10   31 1
    21   11   12 1
    22   11   17 1
    23   12   13 2
    24   13   14 1
    25   14   15 am
    26   14   16 2
    27   15   37 1
    28   17   18 2
    29   17   19 1
    30   17   20 1
    31   20   32 1
    32   21   33 1
    33   21   34 1
    34   22   35 1
    35   22   36 1
    36   22   23 1
    37   23   24 2
    38   23   27 1
    39   24   25 1
    40   25   26 2
    41   26   27 1
@<TRIPOS>MOLECULE
CHEMBL25529
   35    39     0     0     0
SMALL
USER_CHARGES

@<TRIPOS>ATOM
      1 C1         -0.0166    1.3752    0.0096 C.ar      1 <0>        -0.1361
      2 C2          1.1682    2.0896    0.0021 C.ar      1 <0>        -0.1233
      3 C3          2.3807    1.4225   -0.0135 C.ar      1 <0>        -0.0485
      4 C4          2.4080    0.0451   -0.0212 C.ar      1 <0>        -0.0696
      5 C5          1.2216   -0.6833   -0.0133 C.ar      1 <0>        -0.0093
      6 C6          0.0021   -0.0041    0.0020 C.ar      1 <0>        -0.1021
      7 C7          1.5350   -2.1353   -0.0243 C.2       1 <0>         0.1436
      8 C8          2.8814   -2.3156   -0.0386 C.2       1 <0>        -0.1065
      9 N1          3.4093   -3.5771   -0.0506 N.pl3     1 <0>        -0.3314
     10 C9          4.6813   -4.0613   -0.0654 C.2       1 <0>        -0.0698
     11 C10         4.5935   -5.4128   -0.0715 C.2       1 <0>        -0.4688
     12 N2          3.3045   -5.7548   -0.0608 N.2       1 <0>        -0.4099
     13 C11         2.5656   -4.6591   -0.0480 C.2       1 <0>         0.0966
     14 C12         1.1679   -4.4306   -0.0330 C.2       1 <0>         0.4969
     15 N3          0.7064   -3.2022   -0.0222 N.2       1 <0>        -0.6258
     16 O1          0.3085   -5.4788   -0.0300 O.3       1 <0>        -0.6875
     17 P1          5.9945   -6.5650   -0.0915 P.3       1 <0>         2.2758
     18 O2          6.4127   -6.9043    1.3797 O.2       1 <0>        -1.1934
     19 O3          5.5780   -7.8808   -0.8327 O.3       1 <0>        -1.1871
     20 O4          7.2029   -5.9048   -0.8388 O.3       1 <0>        -1.1916
     21 C13         3.5371   -0.9551   -0.0378 C.3       1 <0>        -0.0100
     22 C14         3.6702    2.2023   -0.0226 C.3       1 <0>         0.0369
     23 C15         4.1498    2.3634   -1.4422 C.2       1 <0>         0.0661
     24 N4          3.8520    3.3551   -2.2690 N.2       1 <0>        -0.3958
     25 N5          4.4572    3.1275   -3.3845 N.2       1 <0>        -0.2158
     26 N6          5.1222    2.0295   -3.2845 N.2       1 <0>        -0.2011
     27 N7          4.9551    1.5436   -2.1019 N.2       1 <0>        -0.3698
     28 H1         -0.9605    1.8999    0.0260 H         1 <0>         0.1102
     29 H2          1.1468    3.1693    0.0081 H         1 <0>         0.1151
     30 H3         -0.9253   -0.5576    0.0076 H         1 <0>         0.1183
     31 H4          5.5899   -3.4774   -0.0714 H         1 <0>         0.1643
     32 H5          4.1395   -0.8274   -0.9372 H         1 <0>         0.1022
     33 H6          4.1572   -0.8370    0.8508 H         1 <0>         0.0814
     34 H7          3.5037    3.1851    0.4183 H         1 <0>         0.0701
     35 H8          4.4226    1.6670    0.5565 H         1 <0>         0.0757
@<TRIPOS>BOND
     1    1    6 ar
     2    1    2 ar
     3    1   28 1
     4    2    3 ar
     5    2   29 1
     6    3    4 ar
     7    3   22 1
     8    4   21 1
     9    4    5 ar
    10    5    6 ar
    11    5    7 1
    12    6   30 1
    13    7   15 1
    14    7    8 2
    15    8    9 1
    16    8   21 1
    17    9   13 1
    18    9   10 1
    19   10   11 2
    20   10   31 1
    21   11   12 1
    22   11   17 1
    23   12   13 2
    24   13   14 1
    25   14   15 2
    26   14   16 1
    27   17   18 2
    28   17   19 1
    29   17   20 1
    30   21   32 1
    31   21   33 1
    32   22   34 1
    33   22   35 1
    34   22   23 1
    35   23   24 2
    36   23   27 1
    37   24   25 1
    38   25   26 2
    39   26   27 1
@<TRIPOS>MOLECULE
CHEMBL24507
   47    51     0     0     0
SMALL
USER_CHARGES

@<TRIPOS>ATOM
      1 C1         -0.0167    1.3781    0.0096 C.ar      1 <0>        -0.0833
      2 C2          1.1709    2.0855    0.0021 C.ar      1 <0>        -0.1490
      3 C3          2.3773    1.4107   -0.0130 C.ar      1 <0>        -0.0247
      4 C4          2.3960    0.0285   -0.0201 C.ar      1 <0>        -0.6268
      5 C5          1.2084   -0.6789   -0.0117 C.ar      1 <0>        -0.0209
      6 C6          0.0021   -0.0041    0.0020 C.ar      1 <0>        -0.1446
      7 S1          3.9337   -0.8316   -0.0405 S.o2      1 <0>         2.6434
      8 O1          3.6744   -2.1140   -0.5951 O.2       1 <0>        -1.0035
      9 O2          4.8903    0.0598   -0.5970 O.2       1 <0>        -1.0104
     10 N1          4.3776   -1.0785    1.5357 N.2       1 <0>        -1.0450
     11 C7          5.4787   -1.6942    1.8070 C.2       1 <0>         0.4903
     12 O3          6.2683   -2.1368    0.8065 O.3       1 <0>        -0.7257
     13 C8          5.8826   -1.9189    3.2414 C.3       1 <0>        -0.0554
     14 C9          4.8372   -1.3333    4.1553 C.ar      1 <0>        -0.0009
     15 C10         4.9919   -0.0503    4.6534 C.ar      1 <0>        -0.0959
     16 C11         4.0338    0.4892    5.4929 C.ar      1 <0>        -0.1169
     17 C12         2.9183   -0.2448    5.8398 C.ar      1 <0>        -0.1055
     18 C13         2.7555   -1.5395    5.3407 C.ar      1 <0>        -0.0552
     19 C14         3.7248   -2.0708    4.4914 C.ar      1 <0>        -0.0511
     20 C15         3.2625   -3.4585    4.1254 C.3       1 <0>        -0.0309
     21 C16         1.9441   -3.6521    4.8420 C.2       1 <0>         0.0245
     22 C17         1.6785   -2.5380    5.5415 C.2       1 <0>         0.1233
     23 N2          0.5140   -2.4379    6.3047 N.am      1 <0>        -0.6303
     24 C18        -0.3582   -3.4627    6.3678 C.2       1 <0>         0.6072
     25 C19        -0.0601   -4.6941    5.6144 C.2       1 <0>         0.0968
     26 N3          1.0859   -4.7370    4.8606 N.pl3     1 <0>        -0.3562
     27 C20         1.1351   -5.9448    4.2656 C.2       1 <0>         0.0081
     28 C21        -0.0070   -6.6266    4.6465 C.2       1 <0>        -0.0227
     29 N4         -0.6993   -5.8321    5.4810 N.2       1 <0>        -0.3712
     30 C22        -0.3805   -7.9905    4.2376 C.2       1 <0>         0.5634
     31 O4          0.3508   -8.6274    3.4917 O.co2     1 <0>        -0.6834
     32 O5         -1.4223   -8.4872    4.6436 O.co2     1 <0>        -0.6699
     33 O6         -1.3726   -3.3737    7.0345 O.2       1 <0>        -0.5075
     34 H1         -0.9591    1.9053    0.0259 H         1 <0>         0.1215
     35 H2          1.1563    3.1654    0.0076 H         1 <0>         0.1236
     36 H3          3.3051    1.9634   -0.0196 H         1 <0>         0.1343
     37 H4          1.2231   -1.7588   -0.0176 H         1 <0>         0.1366
     38 H5         -0.9258   -0.5567    0.0082 H         1 <0>         0.1260
     39 H6          5.9723   -2.9886    3.4303 H         1 <0>         0.0929
     40 H7          6.8412   -1.4352    3.4289 H         1 <0>         0.0926
     41 H8          5.8625    0.5302    4.3861 H         1 <0>         0.1248
     42 H9          4.1598    1.4899    5.8789 H         1 <0>         0.1210
     43 H10         2.1730    0.1803    6.4958 H         1 <0>         0.1153
     44 H11         3.1201   -3.5359    3.0475 H         1 <0>         0.1207
     45 H12         3.9875   -4.1985    4.4642 H         1 <0>         0.1105
     46 H13         1.9163   -6.3107    3.6159 H         1 <0>         0.1941
     47 H14         0.3310   -1.6214    6.7953 H         1 <0>         0.4159
@<TRIPOS>BOND
     1    1    6 ar
     2    1    2 ar
     3    1   34 1
     4    2    3 ar
     5    2   35 1
     6    3    4 ar
     7    3   36 1
     8    4    5 ar
     9    4    7 1
    10    5    6 ar
    11    5   37 1
    12    6   38 1
    13    7    8 2
    14    7    9 2
    15    7   10 1
    16   10   11 2
    17   11   12 1
    18   11   13 1
    19   13   14 1
    20   13   39 1
    21   13   40 1
    22   14   19 ar
    23   14   15 ar
    24   15   16 ar
    25   15   41 1
    26   16   17 ar
    27   16   42 1
    28   17   18 ar
    29   17   43 1
    30   18   22 1
    31   18   19 ar
    32   19   20 1
    33   20   21 1
    34   20   44 1
    35   20   45 1
    36   21   26 1
    37   21   22 2
    38   22   23 1
    39   23   24 am
    40   23   47 1
    41   24   25 1
    42   24   33 2
    43   25   29 2
    44   25   26 1
    45   26   27 1
    46   27   28 2
    47   27   46 1
    48   28   29 1
    49   28   30 1
    50   30   31 2
    51   30   32 1
@<TRIPOS>MOLECULE
CHEMBL24507
   46    50     0     0     0
SMALL
USER_CHARGES

@<TRIPOS>ATOM
      1 C1         -0.0167    1.3781    0.0096 C.ar      1 <0>        -0.0840
      2 C2          1.1709    2.0855    0.0021 C.ar      1 <0>        -0.1513
      3 C3          2.3773    1.4107   -0.0130 C.ar      1 <0>        -0.0257
      4 C4          2.3960    0.0285   -0.0201 C.ar      1 <0>        -0.6246
      5 C5          1.2084   -0.6789   -0.0117 C.ar      1 <0>        -0.0172
      6 C6          0.0021   -0.0041    0.0020 C.ar      1 <0>        -0.1422
      7 S1          3.9337   -0.8316   -0.0405 S.o2      1 <0>         2.6406
      8 O1          3.6744   -2.1140   -0.5951 O.2       1 <0>        -1.0059
      9 O2          4.8903    0.0598   -0.5970 O.2       1 <0>        -1.0169
     10 N1          4.3776   -1.0785    1.5357 N.2       1 <0>        -1.0331
     11 C7          5.4787   -1.6942    1.8070 C.2       1 <0>         0.4935
     12 O3          6.2683   -2.1368    0.8065 O.3       1 <0>        -0.7382
     13 C8          5.8826   -1.9189    3.2414 C.3       1 <0>        -0.0488
     14 C9          4.8372   -1.3333    4.1553 C.ar      1 <0>        -0.0172
     15 C10         4.9920   -0.0507    4.6531 C.ar      1 <0>        -0.1153
     16 C11         4.0338    0.4882    5.4924 C.ar      1 <0>        -0.1319
     17 C12         2.9185   -0.2470    5.8386 C.ar      1 <0>        -0.0979
     18 C13         2.7563   -1.5403    5.3398 C.ar      1 <0>        -0.0208
     19 C14         3.7241   -2.0715    4.4916 C.ar      1 <0>        -0.0612
     20 C15         3.2675   -3.4604    4.1215 C.3       1 <0>        -0.0079
     21 C16         1.9497   -3.6637    4.8333 C.2       1 <0>        -0.1283
     22 C17         1.6751   -2.5403    5.5425 C.2       1 <0>         0.1772
     23 N2          0.5463   -2.4462    6.2804 N.2       1 <0>        -0.6189
     24 C18        -0.3143   -3.4333    6.3527 C.2       1 <0>         0.5041
     25 C19        -0.0464   -4.6694    5.6157 C.2       1 <0>         0.1117
     26 N3          1.0964   -4.7353    4.8546 N.pl3     1 <0>        -0.3163
     27 C20         1.1255   -5.9508    4.2689 C.2       1 <0>        -0.0632
     28 C21        -0.0206   -6.6139    4.6608 C.2       1 <0>        -0.0378
     29 N4         -0.7015   -5.8043    5.4932 N.2       1 <0>        -0.4232
     30 C22        -0.4124   -7.9768    4.2639 C.2       1 <0>         0.5693
     31 O4          0.3074   -8.6277    3.5191 O.co2     1 <0>        -0.7031
     32 O5         -1.4576   -8.4581    4.6791 O.co2     1 <0>        -0.6864
     33 O6         -1.4375   -3.3106    7.1010 O.3       1 <0>        -0.6729
     34 H1         -0.9591    1.9053    0.0259 H         1 <0>         0.1203
     35 H2          1.1563    3.1654    0.0076 H         1 <0>         0.1214
     36 H3          3.3051    1.9634   -0.0196 H         1 <0>         0.1328
     37 H4          1.2231   -1.7588   -0.0176 H         1 <0>         0.1376
     38 H5         -0.9258   -0.5567    0.0082 H         1 <0>         0.1266
     39 H6          5.9723   -2.9886    3.4303 H         1 <0>         0.0884
     40 H7          6.8412   -1.4352    3.4289 H         1 <0>         0.0851
     41 H8          5.8626    0.5298    4.3859 H         1 <0>         0.1126
     42 H9          4.1592    1.4889    5.8789 H         1 <0>         0.1099
     43 H10         2.1729    0.1774    6.4945 H         1 <0>         0.1171
     44 H11         3.1279   -3.5356    3.0431 H         1 <0>         0.0916
     45 H12         3.9952   -4.1981    4.4596 H         1 <0>         0.0801
     46 H13         1.8981   -6.3321    3.6177 H         1 <0>         0.1701
@<TRIPOS>BOND
     1    1    6 ar
     2    1    2 ar
     3    1   34 1
     4    2    3 ar
     5    2   35 1
     6    3    4 ar
     7    3   36 1
     8    4    5 ar
     9    4    7 1
    10    5    6 ar
    11    5   37 1
    12    6   38 1
    13    7    8 2
    14    7    9 2
    15    7   10 1
    16   10   11 2
    17   11   12 1
    18   11   13 1
    19   13   14 1
    20   13   39 1
    21   13   40 1
    22   14   19 ar
    23   14   15 ar
    24   15   16 ar
    25   15   41 1
    26   16   17 ar
    27   16   42 1
    28   17   18 ar
    29   17   43 1
    30   18   22 1
    31   18   19 ar
    32   19   20 1
    33   20   21 1
    34   20   44 1
    35   20   45 1
    36   21   26 1
    37   21   22 2
    38   22   23 1
    39   23   24 2
    40   24   25 1
    41   24   33 1
    42   25   29 2
    43   25   26 1
    44   26   27 1
    45   27   28 2
    46   27   46 1
    47   28   29 1
    48   28   30 1
    49   30   31 2
    50   30   32 1
@<TRIPOS>MOLECULE
CHEMBL333463
   32    34     0     0     0
SMALL
USER_CHARGES

@<TRIPOS>ATOM
      1 C1          0.7095    1.2596   -0.7069 C.3       1 <0>         0.0221
      2 N1          0.5519   -0.1879   -0.5126 N.3       1 <0>        -0.5381
      3 C2         -0.8565   -0.5893   -0.6576 C.3       1 <0>         0.0480
      4 C3         -0.9140   -2.1094   -0.8118 C.3       1 <0>        -0.0816
      5 C4         -0.1136   -2.7685    0.2821 C.ar      1 <0>        -0.0656
      6 C5          0.8097   -2.0685    1.0253 C.ar      1 <0>        -0.0036
      7 C6          1.5315   -2.7153    2.0211 C.ar      1 <0>        -0.0285
      8 C7          1.3307   -4.0541    2.2777 C.ar      1 <0>        -0.0589
      9 C8          0.3979   -4.7694    1.5358 C.ar      1 <0>         0.1246
     10 C9         -0.3262   -4.1235    0.5342 C.ar      1 <0>         0.1687
     11 N2         -1.2654   -4.8198   -0.2220 N.am      1 <0>        -0.6327
     12 C10        -1.4820   -6.1304    0.0105 C.2       1 <0>         0.5115
     13 C11        -0.7071   -6.8208    1.0817 C.2       1 <0>         0.5117
     14 N3          0.1964   -6.1215    1.7983 N.am      1 <0>        -0.6310
     15 O1         -0.8882   -8.0006    1.3066 O.2       1 <0>        -0.4510
     16 O2         -2.2999   -6.7427   -0.6463 O.2       1 <0>        -0.4476
     17 N4          2.5265   -1.9585    2.8138 N.pl3     1 <0>         0.0306
     18 O3          3.5610   -2.4871    3.1487 O.2       1 <0>        -0.1420
     19 O4          2.3047   -0.8119    3.1264 O.3       1 <0>        -0.1441
     20 C12         1.0648   -0.6011    0.7973 C.3       1 <0>         0.0837
     21 H1          1.7659    1.5214   -0.6468 H         1 <0>         0.0754
     22 H2          0.3210    1.5391   -1.6863 H         1 <0>         0.0771
     23 H3          0.1585    1.7924    0.0681 H         1 <0>         0.0349
     24 H4         -1.4159   -0.2897    0.2286 H         1 <0>         0.0493
     25 H5         -1.2833   -0.1151   -1.5414 H         1 <0>         0.0942
     26 H6         -1.9508   -2.4402   -0.7511 H         1 <0>         0.0888
     27 H7         -0.5023   -2.3905   -1.7811 H         1 <0>         0.1018
     28 H8          1.8975   -4.5470    3.0538 H         1 <0>         0.1664
     29 H9          2.1374   -0.4116    0.8397 H         1 <0>         0.0986
     30 H10         0.5672   -0.0242    1.5768 H         1 <0>         0.0805
     31 H11        -1.7645   -4.3619   -0.9163 H         1 <0>         0.4278
     32 H12         0.7061   -6.5610    2.4969 H         1 <0>         0.4292
@<TRIPOS>BOND
     1    1    2 1
     2    1   21 1
     3    1   22 1
     4    1   23 1
     5    2   20 1
     6    2    3 1
     7    3    4 1
     8    3   24 1
     9    3   25 1
    10    4    5 1
    11    4   26 1
    12    4   27 1
    13    5   10 ar
    14    5    6 ar
    15    6    7 ar
    16    6   20 1
    17    7    8 ar
    18    7   17 1
    19    8    9 ar
    20    8   28 1
    21    9   14 1
    22    9   10 ar
    23   10   11 1
    24   11   12 am
    25   11   31 1
    26   12   13 1
    27   12   16 2
    28   13   14 am
    29   13   15 2
    30   14   32 1
    31   17   18 2
    32   17   19 1
    33   20   29 1
    34   20   30 1
@<TRIPOS>MOLECULE
CHEMBL420396
   31    33     0     0     0
SMALL
USER_CHARGES

@<TRIPOS>ATOM
      1 C1         -0.0208    1.5258    0.0553 C.3       1 <0>        -0.1411
      2 C2          0.0017   -0.0022   -0.0194 C.3       1 <0>         0.0534
      3 C3          0.7665   -0.5695    1.1498 C.ar      1 <0>        -0.0286
      4 C4          1.8445   -1.2753    0.6174 C.ar      1 <0>         0.0352
      5 C5          2.7372   -1.9158    1.4807 C.ar      1 <0>        -0.0950
      6 C6          2.5440   -1.8440    2.8460 C.ar      1 <0>        -0.0194
      7 C7          1.4702   -1.1404    3.3639 C.ar      1 <0>        -0.1069
      8 C8          0.5808   -0.5031    2.5132 C.ar      1 <0>         0.0049
      9 Cl1        -0.7650    0.3788    3.1651 Cl        1 <0>        -0.0593
     10 Cl2         3.6529   -2.6404    3.9183 Cl        1 <0>        -0.0664
     11 C9          1.8069   -1.1862   -0.8610 C.2       1 <0>         0.1006
     12 C10         0.7490   -0.4542   -1.2554 C.2       1 <0>         0.0982
     13 N1          0.4874   -0.2208   -2.5862 N.am      1 <0>        -0.5943
     14 C11         1.2958   -0.7266   -3.5395 C.2       1 <0>         0.5070
     15 C12         2.4696   -1.5383   -3.1165 C.2       1 <0>         0.5080
     16 N2          2.6775   -1.7348   -1.7995 N.am      1 <0>        -0.6034
     17 O1          3.2250   -2.0141   -3.9419 O.2       1 <0>        -0.4951
     18 O2          1.0709   -0.5246   -4.7173 O.2       1 <0>        -0.4880
     19 C13        -1.4264   -0.5511   -0.0330 C.3       1 <0>        -0.1771
     20 C14        -1.3865   -2.0518   -0.1647 C.2       1 <0>         0.4900
     21 O3         -0.3181   -2.6383   -0.1332 O.co2     1 <0>        -0.6795
     22 O4         -2.4227   -2.6793   -0.3027 O.co2     1 <0>        -0.6990
     23 H1          1.0005    1.9058    0.0317 H         1 <0>         0.0616
     24 H2         -0.5760    1.9229   -0.7945 H         1 <0>         0.0640
     25 H3         -0.5030    1.8372    0.9819 H         1 <0>         0.0734
     26 H4          3.5761   -2.4661    1.0810 H         1 <0>         0.1348
     27 H5          1.3250   -1.0883    4.4328 H         1 <0>         0.1441
     28 H6          3.4371   -2.2606   -1.5039 H         1 <0>         0.4144
     29 H7         -0.2832    0.3110   -2.8399 H         1 <0>         0.4170
     30 H8         -1.9283   -0.2811    0.8961 H         1 <0>         0.0800
     31 H9         -1.9707   -0.1266   -0.8766 H         1 <0>         0.0662
@<TRIPOS>BOND
     1    1    2 1
     2    1   23 1
     3    1   24 1
     4    1   25 1
     5    2    3 1
     6    2   19 1
     7    2   12 1
     8    3    8 ar
     9    3    4 ar
    10    4    5 ar
    11    4   11 1
    12    5    6 ar
    13    5   26 1
    14    6    7 ar
    15    6   10 1
    16    7    8 ar
    17    7   27 1
    18    8    9 1
    19   11   12 2
    20   11   16 1
    21   12   13 1
    22   13   14 am
    23   13   29 1
    24   14   18 2
    25   14   15 1
    26   15   16 am
    27   15   17 2
    28   16   28 1
    29   19   20 1
    30   19   30 1
    31   19   31 1
    32   20   21 2
    33   20   22 1
@<TRIPOS>MOLECULE
CHEMBL420396
   31    33     0     0     0
SMALL
USER_CHARGES

@<TRIPOS>ATOM
      1 C1         -0.0527    1.5260   -0.0090 C.3       1 <0>        -0.1411
      2 C2          0.0225   -0.0020    0.0118 C.3       1 <0>         0.0537
      3 C3          0.8026   -0.4687    1.2147 C.ar      1 <0>        -0.0315
      4 C4         -0.0664   -1.2489    1.9763 C.ar      1 <0>         0.0344
      5 C5          0.3916   -1.8218    3.1656 C.ar      1 <0>        -0.0955
      6 C6          1.6939   -1.6109    3.5732 C.ar      1 <0>        -0.0190
      7 C7          2.5482   -0.8344    2.8093 C.ar      1 <0>        -0.1071
      8 C8          2.1003   -0.2629    1.6288 C.ar      1 <0>         0.0061
      9 Cl1         3.1737    0.7102    0.6724 Cl        1 <0>        -0.0583
     10 Cl2         2.2624   -2.3223    5.0511 Cl        1 <0>        -0.0662
     11 C9         -1.3876   -1.3056    1.3083 C.2       1 <0>         0.1014
     12 C10        -1.3627   -0.5914    0.1682 C.2       1 <0>         0.0998
     13 N1         -2.4702   -0.4836   -0.6414 N.am      1 <0>        -0.5943
     14 C11        -3.6225   -1.0988   -0.3069 C.2       1 <0>         0.5071
     15 C12        -3.6634   -1.8921    0.9519 C.2       1 <0>         0.5078
     16 N2         -2.5487   -1.9640    1.7060 N.am      1 <0>        -0.6031
     17 O1         -4.6812   -2.4633    1.2928 O.2       1 <0>        -0.4954
     18 O2         -4.6054   -1.0074   -1.0169 O.2       1 <0>        -0.4885
     19 C13         0.6751   -0.5157   -1.2732 C.3       1 <0>        -0.1767
     20 C14         0.7974   -2.0164   -1.2092 C.2       1 <0>         0.4906
     21 O3          0.3039   -2.6291   -0.2778 O.co2     1 <0>        -0.6803
     22 O4          1.3899   -2.6178   -2.0888 O.co2     1 <0>        -0.6983
     23 H1          0.9551    1.9388   -0.0552 H         1 <0>         0.0734
     24 H2         -0.6185    1.8502   -0.8824 H         1 <0>         0.0639
     25 H3         -0.5482    1.8777    0.8960 H         1 <0>         0.0616
     26 H4         -0.2716   -2.4280    3.7649 H         1 <0>         0.1350
     27 H5          3.5656   -0.6735    3.1339 H         1 <0>         0.1443
     28 H6         -2.5552   -2.4763    2.5296 H         1 <0>         0.4144
     29 H7         -2.4218    0.0385   -1.4574 H         1 <0>         0.4167
     30 H8          0.0605   -0.2375   -2.1293 H         1 <0>         0.0658
     31 H9          1.6663   -0.0746   -1.3788 H         1 <0>         0.0793
@<TRIPOS>BOND
     1    1    2 1
     2    1   23 1
     3    1   24 1
     4    1   25 1
     5    2    3 1
     6    2   19 1
     7    2   12 1
     8    3    8 ar
     9    3    4 ar
    10    4    5 ar
    11    4   11 1
    12    5    6 ar
    13    5   26 1
    14    6    7 ar
    15    6   10 1
    16    7    8 ar
    17    7   27 1
    18    8    9 1
    19   11   12 2
    20   11   16 1
    21   12   13 1
    22   13   14 am
    23   13   29 1
    24   14   18 2
    25   14   15 1
    26   15   16 am
    27   15   17 2
    28   16   28 1
    29   19   20 1
    30   19   30 1
    31   19   31 1
    32   20   21 2
    33   20   22 1
@<TRIPOS>MOLECULE
CHEMBL277894
   41    44     0     0     0
SMALL
USER_CHARGES

@<TRIPOS>ATOM
      1 C1         -0.0166    1.3734    0.0096 C.ar      1 <0>        -0.1339
      2 C2          1.1695    2.0960    0.0021 C.ar      1 <0>        -0.0740
      3 C3          2.3868    1.4534   -0.0133 C.ar      1 <0>        -0.1007
      4 C4          2.4322    0.0577   -0.0212 C.ar      1 <0>         0.1460
      5 C5          1.2239   -0.6741   -0.0131 C.ar      1 <0>        -0.1933
      6 C6          0.0021   -0.0041    0.0020 C.ar      1 <0>        -0.0430
      7 C7          1.3054   -2.1419   -0.0223 C.2       1 <0>         0.5549
      8 O1          0.3019   -2.8309   -0.0164 O.2       1 <0>        -0.4939
      9 N1          2.5395   -2.6974   -0.0379 N.am      1 <0>        -0.5007
     10 C8          3.6514   -1.9135   -0.0442 C.2       1 <0>         0.3891
     11 N2          3.6095   -0.6157   -0.0369 N.2       1 <0>        -0.4618
     12 C9          5.0002   -2.5855   -0.0612 C.3       1 <0>        -0.1221
     13 C10         6.0834   -1.5377   -0.0657 C.2       1 <0>         0.3921
     14 C11         7.5019   -1.9433   -0.0818 C.ar      1 <0>        -0.1162
     15 C12         7.8641   -3.2961   -0.0989 C.ar      1 <0>        -0.1359
     16 C13         9.2044   -3.6296   -0.1135 C.ar      1 <0>         0.0953
     17 N3         10.1348   -2.6960   -0.1116 N.ar      1 <0>        -0.4661
     18 C14         9.8387   -1.4117   -0.0958 C.ar      1 <0>         0.0970
     19 C15         8.5246   -0.9863   -0.0863 C.ar      1 <0>        -0.1172
     20 O2          5.7902   -0.3656   -0.0562 O.2       1 <0>        -0.3692
     21 C16         2.6731   -4.0919   -0.0471 C.ar      1 <0>         0.1088
     22 C17         2.7330   -4.7771   -1.2533 C.ar      1 <0>        -0.0891
     23 C18         2.8647   -6.1519   -1.2593 C.ar      1 <0>        -0.1019
     24 C19         2.9365   -6.8469   -0.0657 C.ar      1 <0>        -0.0882
     25 C20         2.8767   -6.1685    1.1375 C.ar      1 <0>        -0.1000
     26 C21         2.7516   -4.7918    1.1506 C.ar      1 <0>        -0.0242
     27 Cl1         2.6850   -3.9394    2.6615 Cl        1 <0>        -0.0501
     28 H1         -0.9617    1.8958    0.0259 H         1 <0>         0.1353
     29 H2          1.1363    3.1755    0.0082 H         1 <0>         0.1364
     30 H3          3.3025    2.0261   -0.0197 H         1 <0>         0.1427
     31 H4         -0.9234   -0.5606    0.0082 H         1 <0>         0.1383
     32 H5          5.1049   -3.2124    0.8243 H         1 <0>         0.1283
     33 H6          7.1072   -4.0665   -0.1002 H         1 <0>         0.1427
     34 H7          9.4941   -4.6700   -0.1264 H         1 <0>         0.1632
     35 H8         10.6346   -0.6817   -0.0948 H         1 <0>         0.1641
     36 H9          8.2893    0.0677   -0.0784 H         1 <0>         0.1478
     37 H10         5.0876   -3.2023   -0.9556 H         1 <0>         0.1309
     38 H11         2.6764   -4.2356   -2.1860 H         1 <0>         0.1381
     39 H12         2.9113   -6.6851   -2.1973 H         1 <0>         0.1421
     40 H13         3.0391   -7.9220   -0.0735 H         1 <0>         0.1431
     41 H14         2.9323   -6.7141    2.0679 H         1 <0>         0.1453
@<TRIPOS>BOND
     1    1    6 ar
     2    1    2 ar
     3    1   28 1
     4    2    3 ar
     5    2   29 1
     6    3    4 ar
     7    3   30 1
     8    4   11 1
     9    4    5 ar
    10    5    6 ar
    11    5    7 1
    12    6   31 1
    13    7    8 2
    14    7    9 am
    15    9   10 1
    16    9   21 1
    17   10   11 2
    18   10   12 1
    19   12   32 1
    20   12   37 1
    21   12   13 1
    22   13   14 1
    23   13   20 2
    24   14   19 ar
    25   14   15 ar
    26   15   16 ar
    27   15   33 1
    28   16   17 ar
    29   16   34 1
    30   17   18 ar
    31   18   19 ar
    32   18   35 1
    33   19   36 1
    34   21   26 ar
    35   21   22 ar
    36   22   23 ar
    37   22   38 1
    38   23   24 ar
    39   23   39 1
    40   24   25 ar
    41   24   40 1
    42   25   26 ar
    43   25   41 1
    44   26   27 1
@<TRIPOS>MOLECULE
CHEMBL94807
   32    34     0     0     0
SMALL
USER_CHARGES

@<TRIPOS>ATOM
      1 C1         -0.0167    1.3816    0.0096 C.ar      1 <0>        -0.1184
      2 C2          1.1775    2.0925    0.0021 C.ar      1 <0>         0.1870
      3 C3          2.3935    1.4060   -0.0137 C.ar      1 <0>         0.1402
      4 C4          2.4029    0.0151   -0.0217 C.ar      1 <0>        -0.0472
      5 C5          1.2154   -0.6852   -0.0137 C.ar      1 <0>        -0.0441
      6 C6          0.0021   -0.0041    0.0020 C.ar      1 <0>         0.2494
      7 N1         -1.1994   -0.7185    0.0097 N.pl3     1 <0>        -0.6851
      8 C7         -1.9455   -1.1677    1.2033 C.3       1 <0>         0.1018
      9 C8         -3.3908   -1.3565    0.6788 C.3       1 <0>        -0.0054
     10 N2         -3.1577   -1.8863   -0.6920 N.4       1 <0>        -0.5199
     11 C9         -1.9615   -1.1586   -1.1691 C.3       1 <0>         0.2617
     12 N3          1.2310   -2.1654   -0.0228 N.pl3     1 <0>         0.0424
     13 O1          2.2843   -2.7587   -0.0372 O.2       1 <0>        -0.1405
     14 O2          0.1905   -2.7809   -0.0157 O.3       1 <0>        -0.1611
     15 N4          3.5999    2.1031   -0.0220 N.am      1 <0>        -0.6349
     16 C10         3.6016    3.4515   -0.0139 C.2       1 <0>         0.5107
     17 C11         2.3028    4.1835    0.0035 C.2       1 <0>         0.5112
     18 N5          1.1502    3.4840    0.0098 N.am      1 <0>        -0.6354
     19 O3          2.2833    5.3981    0.0114 O.2       1 <0>        -0.4299
     20 O4          4.6509    4.0637   -0.0202 O.2       1 <0>        -0.4322
     21 H1         -0.9591    1.9089    0.0260 H         1 <0>         0.1668
     22 H2          3.3425   -0.5174   -0.0346 H         1 <0>         0.1777
     23 H3         -1.5452   -2.1117    1.5730 H         1 <0>         0.0972
     24 H4         -1.9167   -0.4062    1.9826 H         1 <0>         0.1122
     25 H5         -3.9343   -2.0789    1.2878 H         1 <0>         0.1528
     26 H6         -3.9193   -0.4039    0.6431 H         1 <0>         0.1431
     27 H7         -2.9809   -2.8791   -0.6604 H         1 <0>         0.4435
     28 H8         -2.2645   -0.2921   -1.7569 H         1 <0>         0.1243
     29 H9         -1.3477   -1.8217   -1.7786 H         1 <0>         0.1233
     30 H10         0.3003    3.9515    0.0204 H         1 <0>         0.4310
     31 H11         4.4397    1.6178   -0.0332 H         1 <0>         0.4336
     32 H12        -3.9487   -1.6866   -1.2858 H         1 <0>         0.4442
@<TRIPOS>BOND
     1    1    6 ar
     2    1    2 ar
     3    1   21 1
     4    2   18 1
     5    2    3 ar
     6    3    4 ar
     7    3   15 1
     8    4    5 ar
     9    4   22 1
    10    5    6 ar
    11    5   12 1
    12    6    7 1
    13    7   11 1
    14    7    8 1
    15    8    9 1
    16    8   23 1
    17    8   24 1
    18    9   10 1
    19    9   25 1
    20    9   26 1
    21   10   11 1
    22   10   27 1
    23   10   32 1
    24   11   28 1
    25   11   29 1
    26   12   13 2
    27   12   14 1
    28   15   16 am
    29   15   31 1
    30   16   17 1
    31   16   20 2
    32   17   18 am
    33   17   19 2
    34   18   30 1
@<TRIPOS>MOLECULE
CHEMBL12747
   50    53     0     0     0
SMALL
USER_CHARGES

@<TRIPOS>ATOM
      1 C1          0.2388    1.5963   -0.2477 C.ar      1 <0>        -0.1143
      2 C2          1.4720    2.2094   -0.3667 C.ar      1 <0>        -0.1249
      3 C3          2.6264    1.4491   -0.3496 C.ar      1 <0>        -0.0970
      4 C4          2.5475    0.0758   -0.2131 C.ar      1 <0>        -0.0906
      5 C5          1.3144   -0.5372   -0.0931 C.ar      1 <0>        -0.0963
      6 C6          0.1599    0.2229   -0.1116 C.ar      1 <0>        -0.1242
      7 C7          3.8059   -0.7532   -0.1955 C.3       1 <0>         0.1201
      8 O1          4.2702   -0.8858    1.1495 O.3       1 <0>        -0.2447
      9 N1          5.4544   -1.6516    1.2772 N.2       1 <0>        -0.3452
     10 C8          5.9770   -1.8456    2.4457 C.2       1 <0>         0.1953
     11 C9          7.2098   -2.6427    2.5786 C.2       1 <0>        -0.1382
     12 C10         7.9686   -3.2762    1.4960 C.2       1 <0>        -0.1474
     13 C11         9.0152   -3.8951    2.0723 C.2       1 <0>         0.0332
     14 N2          8.9598   -3.6924    3.4218 N.pl3     1 <0>        -0.4084
     15 C12         7.8769   -2.9339    3.7346 C.2       1 <0>         0.0529
     16 C13         9.8869   -4.1903    4.3482 C.ar      1 <0>         0.2044
     17 C14         9.4610   -5.0113    5.3802 C.ar      1 <0>        -0.1195
     18 C15        10.3792   -5.5055    6.2984 C.ar      1 <0>         0.2254
     19 C16        11.7300   -5.1713    6.1774 C.ar      1 <0>         0.1131
     20 C17        12.1481   -4.3460    5.1390 C.ar      1 <0>        -0.0412
     21 C18        11.2331   -3.8644    4.2266 C.ar      1 <0>        -0.0610
     22 N3         11.6843   -2.9921    3.1189 N.pl3     1 <0>         0.0397
     23 O2         12.8651   -2.8043    2.9400 O.2       1 <0>        -0.1690
     24 O3         10.8720   -2.4675    2.3933 O.3       1 <0>        -0.1330
     25 N4         12.6638   -5.6574    7.0891 N.am      1 <0>        -0.6303
     26 H1         13.5996   -5.4193    6.9973 H         1 <0>         0.4246
     27 C19        12.2689   -6.4583    8.0995 C.2       1 <0>         0.5182
     28 O4         13.0798   -6.8843    8.8973 O.2       1 <0>        -0.4634
     29 C20        10.8268   -6.8153    8.2280 C.2       1 <0>         0.5090
     30 O5         10.4512   -7.5351    9.1314 O.2       1 <0>        -0.4447
     31 N5          9.9436   -6.3296    7.3323 N.am      1 <0>        -0.4897
     32 C21         8.5234   -6.6706    7.4468 C.3       1 <0>         0.0163
     33 C22         8.2441   -7.9280    6.6646 C.2       1 <0>         0.4870
     34 O6          9.1475   -8.4874    6.0668 O.co2     1 <0>        -0.6766
     35 O7          7.1146   -8.3858    6.6294 O.co2     1 <0>        -0.6770
     36 H2         -0.6628    2.1908   -0.2565 H         1 <0>         0.1222
     37 H3          1.5337    3.2823   -0.4734 H         1 <0>         0.1235
     38 H4          3.5899    1.9280   -0.4433 H         1 <0>         0.1241
     39 H5          1.2527   -1.6102    0.0132 H         1 <0>         0.1247
     40 H6         -0.8036   -0.2560   -0.0183 H         1 <0>         0.1240
     41 H7          3.5963   -1.7407   -0.6065 H         1 <0>         0.0648
     42 H8          4.5717   -0.2641   -0.7976 H         1 <0>         0.0645
     43 H9          5.5098   -1.4235    3.3231 H         1 <0>         0.1190
     44 H10         7.7333   -3.2515    0.4422 H         1 <0>         0.1506
     45 H11         9.7748   -4.4602    1.5527 H         1 <0>         0.1597
     46 H12         7.5913   -2.6175    4.7269 H         1 <0>         0.1748
     47 H13         8.4156   -5.2665    5.4710 H         1 <0>         0.1712
     48 H14        13.1920   -4.0861    5.0440 H         1 <0>         0.1723
     49 H15         8.2717   -6.8314    8.4951 H         1 <0>         0.1062
     50 H16         7.9205   -5.8540    7.0495 H         1 <0>         0.0960
@<TRIPOS>BOND
     1    1    6 ar
     2    1    2 ar
     3    1   36 1
     4    2    3 ar
     5    2   37 1
     6    3    4 ar
     7    3   38 1
     8    4    5 ar
     9    4    7 1
    10    5    6 ar
    11    5   39 1
    12    6   40 1
    13    7    8 1
    14    7   41 1
    15    7   42 1
    16    8    9 1
    17    9   10 2
    18   10   11 1
    19   10   43 1
    20   11   15 2
    21   11   12 1
    22   12   13 2
    23   12   44 1
    24   13   14 1
    25   13   45 1
    26   14   15 1
    27   14   16 1
    28   15   46 1
    29   16   21 ar
    30   16   17 ar
    31   17   18 ar
    32   17   47 1
    33   18   31 1
    34   18   19 ar
    35   19   20 ar
    36   19   25 1
    37   20   21 ar
    38   20   48 1
    39   21   22 1
    40   22   23 2
    41   22   24 1
    42   25   26 1
    43   25   27 am
    44   27   28 2
    45   27   29 1
    46   29   30 2
    47   29   31 am
    48   31   32 1
    49   32   33 1
    50   32   49 1
    51   32   50 1
    52   33   34 2
    53   33   35 1
@<TRIPOS>MOLECULE
CHEMBL12747
   49    52     0     0     0
SMALL
USER_CHARGES

@<TRIPOS>ATOM
      1 C1          0.2720    2.0438    0.2376 C.ar      1 <0>        -0.1175
      2 C2          1.5168    2.6317    0.1119 C.ar      1 <0>        -0.1252
      3 C3          2.6524    1.8444    0.0738 C.ar      1 <0>        -0.0969
      4 C4          2.5432    0.4691    0.1619 C.ar      1 <0>        -0.0863
      5 C5          1.2985   -0.1187    0.2885 C.ar      1 <0>        -0.0971
      6 C6          0.1629    0.6685    0.3252 C.ar      1 <0>        -0.1256
      7 C7          3.7811   -0.3893    0.1194 C.3       1 <0>         0.1209
      8 O1          4.2725   -0.5826    1.4473 O.3       1 <0>        -0.2525
      9 N1          5.4404   -1.3802    1.5188 N.2       1 <0>        -0.3607
     10 C8          5.9846   -1.6297    2.6667 C.2       1 <0>         0.2141
     11 C9          7.2003   -2.4600    2.7412 C.2       1 <0>        -0.1700
     12 C10         7.9186   -3.0705    1.6182 C.2       1 <0>        -0.1542
     13 C11         8.9624   -3.7351    2.1462 C.2       1 <0>        -0.0040
     14 N2          8.9428   -3.5816    3.5036 N.pl3     1 <0>        -0.3853
     15 C12         7.8861   -2.8093    3.8694 C.2       1 <0>         0.1075
     16 C13         9.8771   -4.1340    4.3872 C.ar      1 <0>         0.1171
     17 C14        11.2209   -3.8295    4.2481 C.ar      1 <0>        -0.1094
     18 C15        12.1477   -4.3782    5.1256 C.ar      1 <0>         0.1412
     19 C16        11.7140   -5.2400    6.1501 C.ar      1 <0>         0.1738
     20 C17        10.3476   -5.5346    6.2722 C.ar      1 <0>        -0.0575
     21 C18         9.4496   -4.9838    5.4068 C.ar      1 <0>        -0.0495
     22 N3          8.0093   -5.2953    5.5468 N.pl3     1 <0>         0.0474
     23 O2          7.6181   -5.9315    6.4975 O.2       1 <0>        -0.1830
     24 O3          7.2242   -4.9137    4.7104 O.3       1 <0>        -0.1661
     25 N4         12.5987   -5.7817    7.0114 N.2       1 <0>        -0.6061
     26 C19        13.8760   -5.5222    6.9177 C.2       1 <0>         0.4294
     27 O4         14.7454   -6.0790    7.7956 O.3       1 <0>        -0.6263
     28 C20        14.3724   -4.6265    5.8598 C.2       1 <0>         0.4788
     29 O5         15.5614   -4.3816    5.7669 O.2       1 <0>        -0.5084
     30 N5         13.4914   -4.0792    4.9942 N.am      1 <0>        -0.4859
     31 C21        13.9530   -3.1836    3.9307 C.3       1 <0>         0.0235
     32 C22        13.9482   -1.7628    4.4332 C.2       1 <0>         0.4889
     33 O6         13.5922   -1.5208    5.5739 O.co2     1 <0>        -0.6744
     34 O7         14.3003   -0.8553    3.6990 O.co2     1 <0>        -0.6987
     35 H1         -0.6148    2.6592    0.2718 H         1 <0>         0.1204
     36 H2          1.6021    3.7061    0.0431 H         1 <0>         0.1225
     37 H3          3.6249    2.3036   -0.0251 H         1 <0>         0.1247
     38 H4          1.2132   -1.1932    0.3570 H         1 <0>         0.1244
     39 H5         -0.8096    0.2092    0.4237 H         1 <0>         0.1223
     40 H6          3.5382   -1.3556   -0.3224 H         1 <0>         0.0619
     41 H7          4.5447    0.1037   -0.4824 H         1 <0>         0.0621
     42 H8          5.5478   -1.2296    3.5698 H         1 <0>         0.1141
     43 H9          7.6601   -3.0008    0.5719 H         1 <0>         0.1430
     44 H10         9.6958   -4.2982    1.5881 H         1 <0>         0.1624
     45 H11         7.6313   -2.5226    4.8790 H         1 <0>         0.1597
     46 H12        11.5475   -3.1677    3.4595 H         1 <0>         0.1470
     47 H13        10.0062   -6.1950    7.0556 H         1 <0>         0.1589
     48 H14        14.9649   -3.4612    3.6356 H         1 <0>         0.0926
     49 H15        13.2880   -3.2672    3.0712 H         1 <0>         0.0821
@<TRIPOS>BOND
     1    1    6 ar
     2    1    2 ar
     3    1   35 1
     4    2    3 ar
     5    2   36 1
     6    3    4 ar
     7    3   37 1
     8    4    5 ar
     9    4    7 1
    10    5    6 ar
    11    5   38 1
    12    6   39 1
    13    7    8 1
    14    7   40 1
    15    7   41 1
    16    8    9 1
    17    9   10 2
    18   10   11 1
    19   10   42 1
    20   11   15 2
    21   11   12 1
    22   12   13 2
    23   12   43 1
    24   13   14 1
    25   13   44 1
    26   14   15 1
    27   14   16 1
    28   15   45 1
    29   16   21 ar
    30   16   17 ar
    31   17   18 ar
    32   17   46 1
    33   18   30 1
    34   18   19 ar
    35   19   20 ar
    36   19   25 1
    37   20   21 ar
    38   20   47 1
    39   21   22 1
    40   22   23 2
    41   22   24 1
    42   25   26 2
    43   26   27 1
    44   26   28 1
    45   28   29 2
    46   28   30 am
    47   30   31 1
    48   31   32 1
    49   31   48 1
    50   31   49 1
    51   32   33 2
    52   32   34 1
@<TRIPOS>MOLECULE
CHEMBL12989
   56    59     0     0     0
SMALL
USER_CHARGES

@<TRIPOS>ATOM
      1 C1          2.1101    3.8294    0.7988 C.ar      1 <0>        -0.1126
      2 C2          3.4408    4.1980    0.8648 C.ar      1 <0>        -0.1229
      3 C3          4.4297    3.2367    0.7704 C.ar      1 <0>        -0.0999
      4 C4          4.0879    1.9068    0.6106 C.ar      1 <0>        -0.1092
      5 C5          2.7572    1.5382    0.5456 C.ar      1 <0>        -0.0992
      6 C6          1.7683    2.4996    0.6385 C.ar      1 <0>        -0.1220
      7 C7          5.1660    0.8590    0.5068 C.3       1 <0>         0.1821
      8 N1          5.4929    0.3604    1.8450 N.am      1 <0>        -0.7450
      9 C8          6.4368   -0.5893    1.9983 C.2       1 <0>         0.7040
     10 O1          7.0171   -1.0322    1.0260 O.2       1 <0>        -0.5964
     11 N2          6.7376   -1.0480    3.2294 N.am      1 <0>        -0.7394
     12 C9          7.7636   -2.0803    3.3960 C.3       1 <0>         0.2175
     13 C10         7.9070   -2.4147    4.8585 C.2       1 <0>        -0.1840
     14 C11         8.7756   -1.7894    5.7754 C.2       1 <0>        -0.1710
     15 C12         8.5951   -2.3826    6.9730 C.2       1 <0>        -0.0001
     16 N3          7.6452   -3.3530    6.8295 N.pl3     1 <0>        -0.4079
     17 C13         7.2233   -3.3631    5.5308 C.2       1 <0>         0.0150
     18 C14         7.1769   -4.1960    7.8479 C.ar      1 <0>         0.1855
     19 C15         6.6358   -3.6522    9.0018 C.ar      1 <0>        -0.1160
     20 C16         6.1713   -4.4864   10.0111 C.ar      1 <0>         0.2047
     21 C17         6.2524   -5.8724    9.8579 C.ar      1 <0>         0.1105
     22 C18         6.7974   -6.4092    8.6965 C.ar      1 <0>        -0.0567
     23 C19         7.2511   -5.5759    7.6956 C.ar      1 <0>        -0.1924
     24 C20         7.8347   -6.1627    6.4362 C.3       1 <0>         0.5181
     25 F1          7.9497   -7.5498    6.5777 F         1 <0>        -0.1758
     26 F2          6.9964   -5.8723    5.3545 F         1 <0>        -0.1712
     27 F3          9.0996   -5.6108    6.2072 F         1 <0>        -0.1667
     28 N4          5.7920   -6.7234   10.8596 N.am      1 <0>        -0.6312
     29 H1          5.8531   -7.6846   10.7444 H         1 <0>         0.4217
     30 C21         5.2618   -6.2131   11.9896 C.2       1 <0>         0.5167
     31 O2          4.8593   -6.9515   12.8662 O.2       1 <0>        -0.4710
     32 C22         5.1750   -4.7334   12.1525 C.2       1 <0>         0.5080
     33 O3          4.7008   -4.2543   13.1629 O.2       1 <0>        -0.4550
     34 N5          5.6291   -3.9325   11.1674 N.am      1 <0>        -0.4915
     35 C23         5.5511   -2.4769   11.3139 C.3       1 <0>         0.0198
     36 C24         4.2365   -1.9864   10.7643 C.2       1 <0>         0.4874
     37 O4          3.4386   -2.7792   10.2938 O.co2     1 <0>        -0.6765
     38 O5          3.9708   -0.7967   10.7901 O.co2     1 <0>        -0.6816
     39 H2          1.3374    4.5799    0.8770 H         1 <0>         0.1224
     40 H3          3.7078    5.2370    0.9896 H         1 <0>         0.1234
     41 H4          5.4693    3.5247    0.8212 H         1 <0>         0.1240
     42 H5          2.4902    0.4992    0.4204 H         1 <0>         0.1245
     43 H6          0.7287    2.2116    0.5873 H         1 <0>         0.1239
     44 H7          4.8127    0.0342   -0.1120 H         1 <0>         0.0736
     45 H8          6.0560    1.2969    0.0548 H         1 <0>         0.0736
     46 H9          5.0300    0.7137    2.6207 H         1 <0>         0.3984
     47 H10         6.2746   -0.6947    4.0051 H         1 <0>         0.3995
     48 H11         7.4718   -2.9748    2.8457 H         1 <0>         0.0688
     49 H12         8.7152   -1.7121    3.0125 H         1 <0>         0.0722
     50 H13         9.4607   -0.9831    5.5585 H         1 <0>         0.1420
     51 H14         9.1127   -2.1334    7.8876 H         1 <0>         0.1668
     52 H15         6.4737   -4.0190    5.1135 H         1 <0>         0.1760
     53 H16         6.5756   -2.5800    9.1168 H         1 <0>         0.1600
     54 H17         6.8616   -7.4805    8.5764 H         1 <0>         0.1591
     55 H18         5.6248   -2.2135   12.3690 H         1 <0>         0.1027
     56 H19         6.3704   -2.0121   10.7653 H         1 <0>         0.0930
@<TRIPOS>BOND
     1    1    6 ar
     2    1    2 ar
     3    1   39 1
     4    2    3 ar
     5    2   40 1
     6    3    4 ar
     7    3   41 1
     8    4    5 ar
     9    4    7 1
    10    5    6 ar
    11    5   42 1
    12    6   43 1
    13    7    8 1
    14    7   44 1
    15    7   45 1
    16    8    9 am
    17    8   46 1
    18    9   10 2
    19    9   11 am
    20   11   12 1
    21   11   47 1
    22   12   13 1
    23   12   48 1
    24   12   49 1
    25   13   17 2
    26   13   14 1
    27   14   15 2
    28   14   50 1
    29   15   16 1
    30   15   51 1
    31   16   17 1
    32   16   18 1
    33   17   52 1
    34   18   23 ar
    35   18   19 ar
    36   19   20 ar
    37   19   53 1
    38   20   34 1
    39   20   21 ar
    40   21   22 ar
    41   21   28 1
    42   22   23 ar
    43   22   54 1
    44   23   24 1
    45   24   25 1
    46   24   26 1
    47   24   27 1
    48   28   29 1
    49   28   30 am
    50   30   31 2
    51   30   32 1
    52   32   33 2
    53   32   34 am
    54   34   35 1
    55   35   36 1
    56   35   55 1
    57   35   56 1
    58   36   37 2
    59   36   38 1
@<TRIPOS>MOLECULE
CHEMBL213186
   75    75     0     0     0
SMALL
USER_CHARGES

@<TRIPOS>ATOM
      1 C1         -0.0187    1.5258    0.0104 C.3       1 <0>        -0.1553
      2 C2          0.0021   -0.0041    0.0020 C.3       1 <0>        -0.1074
      3 C3          0.7182   -0.4975   -1.2568 C.3       1 <0>        -0.1411
      4 C4          0.7386   -2.0043   -1.2651 C.2       1 <0>         0.5209
      5 O1          0.2305   -2.6227   -0.3539 O.2       1 <0>        -0.5107
      6 N1          1.3217   -2.6648   -2.2851 N.am      1 <0>        -0.7237
      7 C5          1.3415   -4.1296   -2.2931 C.3       1 <0>         0.1450
      8 H1          1.8517   -4.4811   -3.1899 H         1 <0>         0.1086
      9 C6          2.0815   -4.6364   -1.0536 C.3       1 <0>        -0.0911
     10 C7          3.5274   -4.2177   -1.1255 C.ar      1 <0>        -0.0939
     11 C8          4.4545   -5.0405   -1.7381 C.ar      1 <0>        -0.1016
     12 C9          5.7806   -4.6591   -1.8049 C.ar      1 <0>        -0.1438
     13 C10         6.1817   -3.4493   -1.2571 C.ar      1 <0>         0.1093
     14 C11         5.2494   -2.6253   -0.6434 C.ar      1 <0>        -0.1415
     15 C12         3.9236   -3.0089   -0.5838 C.ar      1 <0>        -0.0879
     16 O2          7.4857   -3.0721   -1.3212 O.3       1 <0>        -0.4987
     17 C13        -0.0723   -4.6512   -2.2824 C.2       1 <0>         0.5026
     18 O3         -0.9793   -3.9371   -1.9107 O.2       1 <0>        -0.4957
     19 N2         -0.3287   -5.9113   -2.6860 N.am      1 <0>        -0.7399
     20 C14        -1.7031   -6.4184   -2.6756 C.3       1 <0>         0.1209
     21 C15        -1.7172   -7.8640   -3.1766 C.3       1 <0>        -0.1297
     22 C16        -3.1526   -8.3936   -3.1657 C.3       1 <0>        -0.1480
     23 C17        -3.1667   -9.8391   -3.6668 C.3       1 <0>        -0.0085
     24 N3         -4.5448  -10.3476   -3.6563 N.4       1 <0>        -0.5108
     25 C18        -4.5583  -11.7355   -4.1374 C.3       1 <0>        -0.0100
     26 C19        -5.9937  -12.2651   -4.1265 C.3       1 <0>        -0.1517
     27 C20        -6.0078  -13.7107   -4.6275 C.3       1 <0>        -0.1197
     28 C21        -7.4432  -14.2403   -4.6167 C.3       1 <0>        -0.1227
     29 C22        -7.4572  -15.6858   -5.1177 C.3       1 <0>        -0.1208
     30 C23        -8.8926  -16.2154   -5.1068 C.3       1 <0>        -0.1538
     31 C24        -8.9067  -17.6610   -5.6079 C.3       1 <0>        -0.0100
     32 N4        -10.2848  -18.1695   -5.5974 N.4       1 <0>        -0.6391
     33 H2          1.0039    1.9031    0.0027 H         1 <0>         0.0556
     34 H3         -0.5459    1.8868   -0.8726 H         1 <0>         0.0545
     35 H4         -0.5289    1.8773    0.9072 H         1 <0>         0.0595
     36 H5          0.5293   -0.3651    0.8851 H         1 <0>         0.0682
     37 H6         -1.0205   -0.3814    0.0098 H         1 <0>         0.0686
     38 H7          0.1910   -0.1364   -2.1398 H         1 <0>         0.0920
     39 H8          1.7408   -0.1202   -1.2645 H         1 <0>         0.0927
     40 H9          1.7281   -2.1702   -3.0138 H         1 <0>         0.4066
     41 H10         1.6246   -4.2129   -0.1592 H         1 <0>         0.1042
     42 H11         2.0198   -5.7239   -1.0129 H         1 <0>         0.0810
     43 H12         4.1418   -5.9822   -2.1644 H         1 <0>         0.1242
     44 H13         6.5045   -5.3024   -2.2829 H         1 <0>         0.1298
     45 H14         5.5592   -1.6830   -0.2162 H         1 <0>         0.1307
     46 H15         3.1967   -2.3658   -0.1100 H         1 <0>         0.1221
     47 H16         7.7093   -2.5623   -2.1119 H         1 <0>         0.3939
     48 H17         0.3967   -6.4825   -2.9833 H         1 <0>         0.4003
     49 H18        -2.0961   -6.3822   -1.6595 H         1 <0>         0.0704
     50 H19        -2.3227   -5.8021   -3.3270 H         1 <0>         0.0690
     51 H20        -1.3242   -7.9002   -4.1927 H         1 <0>         0.0822
     52 H21        -1.0976   -8.4803   -2.5252 H         1 <0>         0.0827
     53 H22        -3.5455   -8.3573   -2.1497 H         1 <0>         0.0927
     54 H23        -3.7722   -7.7772   -3.8171 H         1 <0>         0.0921
     55 H24        -2.7737   -9.8754   -4.6828 H         1 <0>         0.1334
     56 H25        -2.5470  -10.4555   -3.0154 H         1 <0>         0.1336
     57 H26        -4.9086  -10.3141   -2.7158 H         1 <0>         0.4295
     58 H27        -4.1654  -11.7718   -5.1534 H         1 <0>         0.1322
     59 H28        -3.9387  -12.3519   -3.4860 H         1 <0>         0.1323
     60 H29        -6.3867  -12.2289   -3.1105 H         1 <0>         0.0886
     61 H30        -6.6133  -11.6488   -4.7779 H         1 <0>         0.0885
     62 H31        -5.6148  -13.7469   -5.6436 H         1 <0>         0.0768
     63 H32        -5.3882  -14.3270   -3.9762 H         1 <0>         0.0769
     64 H33        -7.8361  -14.2041   -3.6006 H         1 <0>         0.0712
     65 H34        -8.0628  -13.6239   -5.2681 H         1 <0>         0.0711
     66 H35        -7.0643  -15.7221   -6.1338 H         1 <0>         0.0771
     67 H36        -6.8376  -16.3022   -4.4663 H         1 <0>         0.0771
     68 H37        -9.2856  -16.1792   -4.0908 H         1 <0>         0.0887
     69 H38        -9.5122  -15.5991   -5.7582 H         1 <0>         0.0886
     70 H39        -8.5137  -17.6972   -6.6239 H         1 <0>         0.1341
     71 H40        -8.2871  -18.2773   -4.9565 H         1 <0>         0.1341
     72 H41       -10.6486  -18.1359   -4.6569 H         1 <0>         0.4363
     73 H42       -10.8584  -17.5989   -6.2004 H         1 <0>         0.4363
     74 H43        -5.1184   -9.7771   -4.2593 H         1 <0>         0.4292
     75 H44       -10.2941  -19.1228   -5.9278 H         1 <0>         0.4415
@<TRIPOS>BOND
     1    1    2 1
     2    1   33 1
     3    1   34 1
     4    1   35 1
     5    2    3 1
     6    2   36 1
     7    2   37 1
     8    3    4 1
     9    3   38 1
    10    3   39 1
    11    4    5 2
    12    4    6 am
    13    6    7 1
    14    6   40 1
    15    7    8 1
    16    7    9 1
    17    7   17 1
    18    9   10 1
    19    9   41 1
    20    9   42 1
    21   10   15 ar
    22   10   11 ar
    23   11   12 ar
    24   11   43 1
    25   12   13 ar
    26   12   44 1
    27   13   14 ar
    28   13   16 1
    29   14   15 ar
    30   14   45 1
    31   15   46 1
    32   16   47 1
    33   17   18 2
    34   17   19 am
    35   19   20 1
    36   19   48 1
    37   20   21 1
    38   20   49 1
    39   20   50 1
    40   21   22 1
    41   21   51 1
    42   21   52 1
    43   22   23 1
    44   22   53 1
    45   22   54 1
    46   23   24 1
    47   23   55 1
    48   23   56 1
    49   24   25 1
    50   24   57 1
    51   24   74 1
    52   25   26 1
    53   25   58 1
    54   25   59 1
    55   26   27 1
    56   26   60 1
    57   26   61 1
    58   27   28 1
    59   27   62 1
    60   27   63 1
    61   28   29 1
    62   28   64 1
    63   28   65 1
    64   29   30 1
    65   29   66 1
    66   29   67 1
    67   30   31 1
    68   30   68 1
    69   30   69 1
    70   31   32 1
    71   31   70 1
    72   31   71 1
    73   32   72 1
    74   32   73 1
    75   32   75 1
@<TRIPOS>MOLECULE
CHEMBL47230
   42    45     0     0     0
SMALL
USER_CHARGES

@<TRIPOS>ATOM
      1 C1         -0.0167    1.3780    0.0096 C.ar      1 <0>        -0.1321
      2 C2          1.1706    2.0866    0.0021 C.ar      1 <0>        -0.0773
      3 C3          2.3773    1.4137   -0.0131 C.ar      1 <0>        -0.1569
      4 C4          2.3974    0.0291   -0.0207 C.ar      1 <0>         0.1192
      5 C5          1.2080   -0.6793   -0.0132 C.ar      1 <0>        -0.1544
      6 C6          0.0021   -0.0041    0.0020 C.ar      1 <0>        -0.0674
      7 C7          1.2281   -2.1862   -0.0220 C.3       1 <0>         0.1831
      8 N1          1.4877   -2.6790    1.3330 N.pl3     1 <0>        -0.6947
      9 C8          1.5517   -4.0295    1.5717 C.2       1 <0>         0.6476
     10 N2          1.3815   -4.8496    0.5659 N.2       1 <0>        -0.5777
     11 C9          1.4319   -6.1933    0.7308 C.ar      1 <0>         0.2017
     12 C10         1.2507   -7.0690   -0.3431 C.ar      1 <0>        -0.1009
     13 C11         1.3091   -8.4182   -0.1374 C.ar      1 <0>        -0.0903
     14 C12         1.5468   -8.9390    1.1303 C.ar      1 <0>         0.0580
     15 C13         1.7291   -8.0999    2.2097 C.ar      1 <0>        -0.0610
     16 C14         1.6741   -6.7193    2.0200 C.ar      1 <0>        -0.2044
     17 C15         1.8614   -5.7763    3.1304 C.2       1 <0>         0.5707
     18 O1          2.0732   -6.1693    4.2630 O.2       1 <0>        -0.4888
     19 N3          1.7955   -4.4547    2.8475 N.am      1 <0>        -0.5129
     20 C16         1.9728   -3.5147    3.8717 C.ar      1 <0>         0.0951
     21 C17         0.8806   -3.0693    4.6039 C.ar      1 <0>        -0.0844
     22 C18         1.0583   -2.1429    5.6127 C.ar      1 <0>        -0.1048
     23 C19         2.3226   -1.6580    5.8940 C.ar      1 <0>        -0.0849
     24 C20         3.4129   -2.0989    5.1671 C.ar      1 <0>        -0.1032
     25 C21         3.2428   -3.0307    4.1602 C.ar      1 <0>        -0.0193
     26 Cl1         4.6129   -3.5895    3.2525 Cl        1 <0>        -0.0444
     27 F1          1.5990  -10.2776    1.3058 F         1 <0>        -0.1360
     28 F2          3.5766   -0.6299   -0.0360 F         1 <0>        -0.1310
     29 H1         -0.9594    1.9048    0.0260 H         1 <0>         0.1340
     30 H2          1.1547    3.1665    0.0077 H         1 <0>         0.1360
     31 H3          3.3046    1.9675   -0.0193 H         1 <0>         0.1387
     32 H4         -0.9259   -0.5565    0.0083 H         1 <0>         0.1368
     33 H5          0.2640   -2.5604   -0.3662 H         1 <0>         0.0927
     34 H6          2.0136   -2.5351   -0.6922 H         1 <0>         0.0895
     35 H7          1.6144   -2.0512    2.0615 H         1 <0>         0.4111
     36 H8          1.0646   -6.6800   -1.3333 H         1 <0>         0.1489
     37 H9          1.1683   -9.0902   -0.9711 H         1 <0>         0.1456
     38 H10         1.9127   -8.5081    3.1925 H         1 <0>         0.1474
     39 H11        -0.1073   -3.4468    4.3847 H         1 <0>         0.1388
     40 H12         0.2088   -1.7963    6.1824 H         1 <0>         0.1427
     41 H13         2.4585   -0.9330    6.6829 H         1 <0>         0.1436
     42 H14         4.3989   -1.7181    5.3889 H         1 <0>         0.1457
@<TRIPOS>BOND
     1    1    6 ar
     2    1    2 ar
     3    1   29 1
     4    2    3 ar
     5    2   30 1
     6    3    4 ar
     7    3   31 1
     8    4    5 ar
     9    4   28 1
    10    5    6 ar
    11    5    7 1
    12    6   32 1
    13    7    8 1
    14    7   33 1
    15    7   34 1
    16    8    9 1
    17    8   35 1
    18    9   19 1
    19    9   10 2
    20   10   11 1
    21   11   16 ar
    22   11   12 ar
    23   12   13 ar
    24   12   36 1
    25   13   14 ar
    26   13   37 1
    27   14   15 ar
    28   14   27 1
    29   15   16 ar
    30   15   38 1
    31   16   17 1
    32   17   18 2
    33   17   19 am
    34   19   20 1
    35   20   25 ar
    36   20   21 ar
    37   21   22 ar
    38   21   39 1
    39   22   23 ar
    40   22   40 1
    41   23   24 ar
    42   23   41 1
    43   24   25 ar
    44   24   42 1
    45   25   26 1
@<TRIPOS>MOLECULE
CHEMBL192106
   80    81     0     0     0
SMALL
USER_CHARGES

@<TRIPOS>ATOM
      1 C1         -0.0187    1.5258    0.0104 C.3       1 <0>        -0.1562
      2 C2          0.0021   -0.0041    0.0020 C.3       1 <0>        -0.1064
      3 C3          0.7421   -0.5109    1.2415 C.3       1 <0>        -0.1422
      4 C4          0.7625   -2.0177    1.2333 C.2       1 <0>         0.5227
      5 O1          0.2370   -2.6263    0.3253 O.2       1 <0>        -0.5128
      6 N1          1.3648   -2.6890    2.2348 N.am      1 <0>        -0.7238
      7 C5          1.3847   -4.1539    2.2267 C.3       1 <0>         0.1461
      8 H1          1.9119   -4.5150    3.1098 H         1 <0>         0.1094
      9 C6         -0.0507   -4.6835    2.2376 C.3       1 <0>        -0.0905
     10 C7         -0.7175   -4.3009    3.5338 C.ar      1 <0>        -0.0888
     11 C8         -0.6311   -5.1582    4.6293 C.ar      1 <0>        -0.1192
     12 C9         -1.2220   -4.8430    5.8141 C.ar      1 <0>        -0.0982
     13 C10        -1.9304   -3.6356    5.9382 C.ar      1 <0>        -0.0524
     14 C11        -2.5533   -3.2756    7.1455 C.ar      1 <0>        -0.1087
     15 C12        -3.2305   -2.0980    7.2289 C.ar      1 <0>        -0.1093
     16 C13        -3.3166   -1.2407    6.1334 C.ar      1 <0>        -0.1082
     17 C14        -2.7260   -1.5561    4.9486 C.ar      1 <0>        -0.1092
     18 C15        -2.0180   -2.7637    4.8244 C.ar      1 <0>        -0.0496
     19 C16        -1.3903   -3.1210    3.6187 C.ar      1 <0>        -0.0858
     20 C17         2.0901   -4.6399    0.9868 C.2       1 <0>         0.5049
     21 O2          2.2102   -3.9045    0.0299 O.2       1 <0>        -0.4895
     22 N2          2.5873   -5.8917    0.9414 N.am      1 <0>        -0.7427
     23 C18         3.2730   -6.3642   -0.2639 C.3       1 <0>         0.1253
     24 C19         3.7365   -7.8072   -0.0545 C.3       1 <0>        -0.1640
     25 C20         4.4526   -8.3006   -1.3133 C.3       1 <0>        -0.0059
     26 N3          4.8976   -9.6861   -1.1123 N.4       1 <0>        -0.5095
     27 C21         5.5852  -10.1598   -2.3209 C.3       1 <0>        -0.0099
     28 C22         6.0486  -11.6028   -2.1115 C.3       1 <0>        -0.1499
     29 C23         6.7648  -12.0962   -3.3703 C.3       1 <0>        -0.1503
     30 C24         7.2282  -13.5392   -3.1609 C.3       1 <0>        -0.0098
     31 N4          7.9158  -14.0130   -4.3695 N.4       1 <0>        -0.5106
     32 C25         8.3608  -15.3985   -4.1684 C.3       1 <0>        -0.0048
     33 C26         9.0769  -15.8919   -5.4272 C.3       1 <0>        -0.1882
     34 C27         9.5404  -17.3349   -5.2178 C.3       1 <0>        -0.0022
     35 N5         10.2280  -17.8086   -6.4264 N.4       1 <0>        -0.6387
     36 H2          1.0039    1.9031    0.0027 H         1 <0>         0.0548
     37 H3         -0.5459    1.8868   -0.8726 H         1 <0>         0.0603
     38 H4         -0.5289    1.8773    0.9072 H         1 <0>         0.0565
     39 H5         -1.0205   -0.3814    0.0098 H         1 <0>         0.0683
     40 H6          0.5123   -0.3556   -0.8948 H         1 <0>         0.0678
     41 H7          1.7647   -0.1336    1.2338 H         1 <0>         0.0926
     42 H8          0.2319   -0.1594    2.1383 H         1 <0>         0.0941
     43 H9          1.7851   -2.2023    2.9609 H         1 <0>         0.4084
     44 H10        -0.6036   -4.2517    1.4033 H         1 <0>         0.1035
     45 H11        -0.0381   -5.7692    2.1421 H         1 <0>         0.0784
     46 H12        -0.0873   -6.0866    4.5366 H         1 <0>         0.1176
     47 H13        -1.1473   -5.5174    6.6543 H         1 <0>         0.1278
     48 H14        -2.4952   -3.9302    8.0025 H         1 <0>         0.1288
     49 H15        -3.7086   -1.8240    8.1577 H         1 <0>         0.1275
     50 H16        -3.8605   -0.3122    6.2261 H         1 <0>         0.1275
     51 H17        -2.8014   -0.8822    4.1081 H         1 <0>         0.1274
     52 H18        -1.4450   -2.4645    2.7629 H         1 <0>         0.1212
     53 H19         2.4912   -6.4799    1.7067 H         1 <0>         0.4017
     54 H20         2.5889   -6.3217   -1.1114 H         1 <0>         0.0775
     55 H21         4.1372   -5.7302   -0.4624 H         1 <0>         0.0762
     56 H22         4.4206   -7.8497    0.7930 H         1 <0>         0.0967
     57 H23         2.8723   -8.4412    0.1439 H         1 <0>         0.0972
     58 H24         3.7685   -8.2581   -2.1608 H         1 <0>         0.1395
     59 H25         5.3168   -7.6666   -1.5118 H         1 <0>         0.1391
     60 H26         5.5309   -9.7254   -0.3278 H         1 <0>         0.4314
     61 H27         4.9011  -10.1173   -3.1684 H         1 <0>         0.1374
     62 H28         6.4494   -9.5258   -2.5194 H         1 <0>         0.1373
     63 H29         6.7328  -11.6453   -1.2640 H         1 <0>         0.1009
     64 H30         5.1845  -12.2368   -1.9130 H         1 <0>         0.1010
     65 H31         6.0806  -12.0537   -4.2178 H         1 <0>         0.1018
     66 H32         7.6289  -11.4623   -3.5688 H         1 <0>         0.1017
     67 H33         7.9124  -13.5818   -2.3134 H         1 <0>         0.1402
     68 H34         6.3641  -14.1732   -2.9624 H         1 <0>         0.1402
     69 H35         7.2825  -13.9736   -5.1540 H         1 <0>         0.4345
     70 H36         9.0450  -15.4410   -3.3210 H         1 <0>         0.1456
     71 H37         7.4966  -16.0324   -3.9700 H         1 <0>         0.1457
     72 H38         8.3928  -15.8494   -6.2747 H         1 <0>         0.1137
     73 H39         9.9411  -15.2579   -5.6257 H         1 <0>         0.1137
     74 H40        10.2245  -17.3774   -4.3703 H         1 <0>         0.1457
     75 H41         8.6762  -17.9689   -5.0193 H         1 <0>         0.1458
     76 H42         9.5947  -17.7693   -7.2110 H         1 <0>         0.4411
     77 H43        11.0279  -17.2218   -6.6102 H         1 <0>         0.4410
     78 H44        10.5336  -18.7603   -6.2883 H         1 <0>         0.4534
     79 H45         4.0977  -10.2729   -0.9285 H         1 <0>         0.4317
     80 H46         8.7158  -13.4261   -4.5532 H         1 <0>         0.4345
@<TRIPOS>BOND
     1    1    2 1
     2    1   36 1
     3    1   37 1
     4    1   38 1
     5    2    3 1
     6    2   39 1
     7    2   40 1
     8    3    4 1
     9    3   41 1
    10    3   42 1
    11    4    5 2
    12    4    6 am
    13    6    7 1
    14    6   43 1
    15    7    8 1
    16    7    9 1
    17    7   20 1
    18    9   10 1
    19    9   44 1
    20    9   45 1
    21   10   19 ar
    22   10   11 ar
    23   11   12 ar
    24   11   46 1
    25   12   13 ar
    26   12   47 1
    27   13   18 ar
    28   13   14 ar
    29   14   15 ar
    30   14   48 1
    31   15   16 ar
    32   15   49 1
    33   16   17 ar
    34   16   50 1
    35   17   18 ar
    36   17   51 1
    37   18   19 ar
    38   19   52 1
    39   20   21 2
    40   20   22 am
    41   22   23 1
    42   22   53 1
    43   23   24 1
    44   23   54 1
    45   23   55 1
    46   24   25 1
    47   24   56 1
    48   24   57 1
    49   25   26 1
    50   25   58 1
    51   25   59 1
    52   26   27 1
    53   26   60 1
    54   26   79 1
    55   27   28 1
    56   27   61 1
    57   27   62 1
    58   28   29 1
    59   28   63 1
    60   28   64 1
    61   29   30 1
    62   29   65 1
    63   29   66 1
    64   30   31 1
    65   30   67 1
    66   30   68 1
    67   31   32 1
    68   31   69 1
    69   31   80 1
    70   32   33 1
    71   32   70 1
    72   32   71 1
    73   33   34 1
    74   33   72 1
    75   33   73 1
    76   34   35 1
    77   34   74 1
    78   34   75 1
    79   35   76 1
    80   35   77 1
    81   35   78 1
@<TRIPOS>MOLECULE
CHEMBL192106
   79    80     0     0     0
SMALL
USER_CHARGES

@<TRIPOS>ATOM
      1 C1         -0.0187    1.5258    0.0104 C.3       1 <0>        -0.1557
      2 C2          0.0021   -0.0041    0.0020 C.3       1 <0>        -0.1068
      3 C3          0.7182   -0.4975   -1.2568 C.3       1 <0>        -0.1419
      4 C4          0.7386   -2.0043   -1.2651 C.2       1 <0>         0.5221
      5 O1          0.2305   -2.6227   -0.3539 O.2       1 <0>        -0.5120
      6 N1          1.3217   -2.6648   -2.2851 N.am      1 <0>        -0.7237
      7 C5          1.3415   -4.1296   -2.2931 C.3       1 <0>         0.1460
      8 H1          1.8517   -4.4811   -3.1899 H         1 <0>         0.1094
      9 C6          2.0815   -4.6364   -1.0536 C.3       1 <0>        -0.0913
     10 C7          3.5274   -4.2177   -1.1255 C.ar      1 <0>        -0.0869
     11 C8          4.4543   -5.0541   -1.7451 C.ar      1 <0>        -0.1181
     12 C9          5.7674   -4.7062   -1.8267 C.ar      1 <0>        -0.0989
     13 C10         6.1986   -3.4856   -1.2795 C.ar      1 <0>        -0.0526
     14 C11         7.5462   -3.0919   -1.3449 C.ar      1 <0>        -0.1083
     15 C12         7.9272   -1.9025   -0.8042 C.ar      1 <0>        -0.1105
     16 C13         7.0002   -1.0660   -0.1850 C.ar      1 <0>        -0.1093
     17 C14         5.6872   -1.4142   -0.1029 C.ar      1 <0>        -0.1089
     18 C15         5.2561   -2.6350   -0.6499 C.ar      1 <0>        -0.0495
     19 C16         3.9076   -3.0260   -0.5894 C.ar      1 <0>        -0.0867
     20 C17        -0.0723   -4.6512   -2.2824 C.2       1 <0>         0.5046
     21 O2         -0.9793   -3.9371   -1.9107 O.2       1 <0>        -0.4903
     22 N2         -0.3287   -5.9113   -2.6860 N.am      1 <0>        -0.7420
     23 C18        -1.7031   -6.4184   -2.6756 C.3       1 <0>         0.1253
     24 C19        -1.7172   -7.8640   -3.1766 C.3       1 <0>        -0.1638
     25 C20        -3.1526   -8.3936   -3.1657 C.3       1 <0>        -0.0058
     26 N3         -3.1661   -9.7815   -3.6468 N.4       1 <0>        -0.5092
     27 C21        -4.5442  -10.2900   -3.6364 C.3       1 <0>        -0.0099
     28 C22        -4.5583  -11.7355   -4.1374 C.3       1 <0>        -0.1489
     29 C23        -5.9937  -12.2651   -4.1265 C.3       1 <0>        -0.1498
     30 C24        -6.0078  -13.7107   -4.6275 C.3       1 <0>        -0.0093
     31 N4         -7.3859  -14.2192   -4.6171 N.4       1 <0>        -0.5096
     32 C25        -7.3994  -15.6071   -5.0982 C.3       1 <0>        -0.0074
     33 C26        -8.8348  -16.1367   -5.0873 C.3       1 <0>        -0.1523
     34 C27        -8.8489  -17.5823   -5.5883 C.3       1 <0>         0.0630
     35 N5        -10.2270  -18.0907   -5.5779 N.3       1 <0>        -0.8529
     36 H2          1.0039    1.9031    0.0027 H         1 <0>         0.0559
     37 H3         -0.5459    1.8868   -0.8726 H         1 <0>         0.0547
     38 H4         -0.5289    1.8773    0.9072 H         1 <0>         0.0600
     39 H5          0.5293   -0.3651    0.8851 H         1 <0>         0.0682
     40 H6         -1.0205   -0.3814    0.0098 H         1 <0>         0.0683
     41 H7          0.1910   -0.1364   -2.1398 H         1 <0>         0.0925
     42 H8          1.7408   -0.1202   -1.2645 H         1 <0>         0.0935
     43 H9          1.7281   -2.1702   -3.0138 H         1 <0>         0.4079
     44 H10         1.6246   -4.2129   -0.1592 H         1 <0>         0.1036
     45 H11         2.0198   -5.7239   -1.0129 H         1 <0>         0.0793
     46 H12         4.1255   -5.9926   -2.1664 H         1 <0>         0.1185
     47 H13         6.4745   -5.3647   -2.3091 H         1 <0>         0.1278
     48 H14         8.2756   -3.7301   -1.8214 H         1 <0>         0.1285
     49 H15         8.9634   -1.6026   -0.8555 H         1 <0>         0.1268
     50 H16         7.3290   -0.1275    0.2365 H         1 <0>         0.1267
     51 H17         4.9802   -0.7561    0.3802 H         1 <0>         0.1271
     52 H18         3.1774   -2.3859   -0.1165 H         1 <0>         0.1214
     53 H19         0.3967   -6.4825   -2.9833 H         1 <0>         0.4016
     54 H20        -2.0961   -6.3822   -1.6595 H         1 <0>         0.0777
     55 H21        -2.3227   -5.8021   -3.3270 H         1 <0>         0.0764
     56 H22        -1.3242   -7.9002   -4.1927 H         1 <0>         0.0963
     57 H23        -1.0976   -8.4803   -2.5252 H         1 <0>         0.0969
     58 H24        -3.5455   -8.3573   -2.1497 H         1 <0>         0.1391
     59 H25        -3.7722   -7.7772   -3.8171 H         1 <0>         0.1386
     60 H26        -2.8023   -9.8150   -4.5873 H         1 <0>         0.4309
     61 H27        -4.9372  -10.2537   -2.6203 H         1 <0>         0.1373
     62 H28        -5.1639   -9.6736   -4.2877 H         1 <0>         0.1370
     63 H29        -4.1654  -11.7718   -5.1534 H         1 <0>         0.0997
     64 H30        -3.9387  -12.3519   -3.4860 H         1 <0>         0.1001
     65 H31        -6.3867  -12.2289   -3.1105 H         1 <0>         0.1005
     66 H32        -6.6133  -11.6488   -4.7779 H         1 <0>         0.0999
     67 H33        -5.6148  -13.7469   -5.6436 H         1 <0>         0.1356
     68 H34        -5.3882  -14.3270   -3.9762 H         1 <0>         0.1363
     69 H35        -7.7497  -14.1856   -3.6766 H         1 <0>         0.4318
     70 H36        -7.0065  -15.6433   -6.1142 H         1 <0>         0.1335
     71 H37        -6.7798  -16.2234   -4.4468 H         1 <0>         0.1358
     72 H38        -9.2278  -16.1005   -4.0712 H         1 <0>         0.0979
     73 H39        -9.4544  -15.5203   -5.7387 H         1 <0>         0.0869
     74 H40        -8.4559  -17.6185   -6.6044 H         1 <0>         0.0383
     75 H41        -8.2293  -18.1986   -4.9369 H         1 <0>         0.0834
     76 H42       -10.8351  -17.4984   -6.1232 H         1 <0>         0.3469
     77 H43       -10.2630  -19.0446   -5.9049 H         1 <0>         0.3609
     78 H44        -2.5925  -10.3520   -3.0438 H         1 <0>         0.4313
     79 H45        -7.9595  -13.6486   -5.2201 H         1 <0>         0.4306
@<TRIPOS>BOND
     1    1    2 1
     2    1   36 1
     3    1   37 1
     4    1   38 1
     5    2    3 1
     6    2   39 1
     7    2   40 1
     8    3    4 1
     9    3   41 1
    10    3   42 1
    11    4    5 2
    12    4    6 am
    13    6    7 1
    14    6   43 1
    15    7    8 1
    16    7    9 1
    17    7   20 1
    18    9   10 1
    19    9   44 1
    20    9   45 1
    21   10   19 ar
    22   10   11 ar
    23   11   12 ar
    24   11   46 1
    25   12   13 ar
    26   12   47 1
    27   13   18 ar
    28   13   14 ar
    29   14   15 ar
    30   14   48 1
    31   15   16 ar
    32   15   49 1
    33   16   17 ar
    34   16   50 1
    35   17   18 ar
    36   17   51 1
    37   18   19 ar
    38   19   52 1
    39   20   21 2
    40   20   22 am
    41   22   23 1
    42   22   53 1
    43   23   24 1
    44   23   54 1
    45   23   55 1
    46   24   25 1
    47   24   56 1
    48   24   57 1
    49   25   26 1
    50   25   58 1
    51   25   59 1
    52   26   27 1
    53   26   60 1
    54   26   78 1
    55   27   28 1
    56   27   61 1
    57   27   62 1
    58   28   29 1
    59   28   63 1
    60   28   64 1
    61   29   30 1
    62   29   65 1
    63   29   66 1
    64   30   31 1
    65   30   67 1
    66   30   68 1
    67   31   32 1
    68   31   69 1
    69   31   79 1
    70   32   33 1
    71   32   70 1
    72   32   71 1
    73   33   34 1
    74   33   72 1
    75   33   73 1
    76   34   35 1
    77   34   74 1
    78   34   75 1
    79   35   76 1
    80   35   77 1
@<TRIPOS>MOLECULE
CHEMBL557167
   33    35     0     0     0
SMALL
USER_CHARGES

@<TRIPOS>ATOM
      1 C1         -0.0167    1.3818    0.0096 C.ar      1 <0>        -0.2841
      2 C2          1.1915    2.0609    0.0018 C.ar      1 <0>         0.1941
      3 N1          2.3197    1.3705   -0.0127 N.ar      1 <0>        -0.5671
      4 C3          2.3029    0.0457   -0.0197 C.ar      1 <0>         0.5601
      5 N2          1.1654   -0.6335   -0.0129 N.ar      1 <0>        -0.5679
      6 C4          0.0021   -0.0041    0.0020 C.ar      1 <0>         0.1929
      7 N3          3.5022   -0.6451   -0.0348 N.pl3     1 <0>        -0.7053
      8 C5          3.5036   -2.1100   -0.0427 C.3       1 <0>         0.1797
      9 C6          4.9248   -2.6109   -0.0590 C.ar      1 <0>        -0.1136
     10 C7          5.4969   -3.0242   -1.2450 C.ar      1 <0>        -0.0164
     11 C8          6.8023   -3.4849   -1.2662 C.ar      1 <0>        -0.0397
     12 C9          7.5412   -3.5342   -0.1016 C.ar      1 <0>        -0.0451
     13 C10         6.9755   -3.1210    1.0993 C.ar      1 <0>         0.1220
     14 C11         5.6609   -2.6510    1.1197 C.ar      1 <0>         0.1923
     15 N4          5.0787   -2.2274    2.3111 N.am      1 <0>        -0.6338
     16 C12         5.7854   -2.2629    3.4591 C.2       1 <0>         0.5112
     17 C13         7.1917   -2.7592    3.4362 C.2       1 <0>         0.5126
     18 N5          7.7269   -3.1740    2.2699 N.am      1 <0>        -0.6315
     19 O1          7.8449   -2.7989    4.4594 O.2       1 <0>        -0.4471
     20 O2          5.2819   -1.8940    4.5011 O.2       1 <0>        -0.4418
     21 N6          7.4077   -3.9266   -2.5427 N.pl3     1 <0>         0.0341
     22 O3          6.7623   -3.8848   -3.5642 O.2       1 <0>        -0.1451
     23 O4          8.5474   -4.3293   -2.5639 O.3       1 <0>        -0.1490
     24 H1         -0.9525    1.9208    0.0259 H         1 <0>         0.1473
     25 H2          1.2116    3.1407    0.0070 H         1 <0>         0.1697
     26 H3         -0.9219   -0.5632    0.0082 H         1 <0>         0.1702
     27 H4          4.3417   -0.1592   -0.0403 H         1 <0>         0.4163
     28 H5          2.9986   -2.4787    0.8502 H         1 <0>         0.0842
     29 H6          2.9817   -2.4691   -0.9297 H         1 <0>         0.0990
     30 H7          4.9241   -2.9885   -2.1598 H         1 <0>         0.1698
     31 H8          8.5591   -3.8943   -0.1230 H         1 <0>         0.1726
     32 H9          8.6406   -3.4987    2.2447 H         1 <0>         0.4307
     33 H10         4.1635   -1.9060    2.3155 H         1 <0>         0.4290
@<TRIPOS>BOND
     1    1    6 ar
     2    1    2 ar
     3    1   24 1
     4    2    3 ar
     5    2   25 1
     6    3    4 ar
     7    4    5 ar
     8    4    7 1
     9    5    6 ar
    10    6   26 1
    11    7    8 1
    12    7   27 1
    13    8    9 1
    14    8   28 1
    15    8   29 1
    16    9   14 ar
    17    9   10 ar
    18   10   11 ar
    19   10   30 1
    20   11   12 ar
    21   11   21 1
    22   12   13 ar
    23   12   31 1
    24   13   18 1
    25   13   14 ar
    26   14   15 1
    27   15   16 am
    28   15   33 1
    29   16   17 1
    30   16   20 2
    31   17   18 am
    32   17   19 2
    33   18   32 1
    34   21   22 2
    35   21   23 1
@<TRIPOS>MOLECULE
CHEMBL194224
   75    76     0     0     0
SMALL
USER_CHARGES

@<TRIPOS>ATOM
      1 C1          2.1490   -4.5024    4.1105 C.3       1 <0>        -0.1559
      2 C2          1.2002   -5.0443    3.0395 C.3       1 <0>        -0.1069
      3 C3          0.2319   -3.9402    2.6102 C.3       1 <0>        -0.1408
      4 C4         -0.7026   -4.4739    1.5553 C.2       1 <0>         0.5095
      5 O1         -0.6039   -5.6241    1.1834 O.2       1 <0>        -0.5211
      6 N1         -1.6481   -3.6731    1.0250 N.am      1 <0>        -0.7233
      7 C5         -2.4849   -4.1571   -0.0758 C.3       1 <0>         0.1600
      8 C6         -3.4682   -5.2397    0.4176 C.3       1 <0>        -0.0754
      9 C7         -4.7265   -4.4888    0.7969 C.ar      1 <0>        -0.0910
     10 C8         -5.8026   -4.8772    1.5775 C.ar      1 <0>        -0.1029
     11 C9         -6.8562   -4.0099    1.7896 C.ar      1 <0>        -0.1064
     12 C10        -6.8376   -2.7497    1.2214 C.ar      1 <0>        -0.1155
     13 C11        -5.7655   -2.3606    0.4427 C.ar      1 <0>        -0.0985
     14 C12        -4.7079   -3.2289    0.2288 C.ar      1 <0>        -0.1139
     15 C13        -3.4359   -3.0470   -0.5712 C.3       1 <0>        -0.0686
     16 C14        -1.6328   -4.6761   -1.2052 C.2       1 <0>         0.5419
     17 O2         -2.0019   -5.6324   -1.8534 O.2       1 <0>        -0.5093
     18 N2         -0.4606   -4.0774   -1.4951 N.am      1 <0>        -0.7331
     19 C15         0.4195   -4.6471   -2.5183 C.3       1 <0>         0.1243
     20 C16         1.6742   -3.7817   -2.6511 C.3       1 <0>        -0.1637
     21 C17         2.5935   -4.3767   -3.7197 C.3       1 <0>        -0.0056
     22 N3          3.7982   -3.5457   -3.8472 N.4       1 <0>        -0.5094
     23 C18         4.6807   -4.1170   -4.8731 C.3       1 <0>        -0.0100
     24 C19         5.9354   -3.2516   -5.0059 C.3       1 <0>        -0.1498
     25 C20         6.8547   -3.8466   -6.0745 C.3       1 <0>        -0.1503
     26 C21         8.1094   -2.9811   -6.2073 C.3       1 <0>        -0.0099
     27 N4          8.9919   -3.5524   -7.2333 N.4       1 <0>        -0.5105
     28 C22        10.1966   -2.7215   -7.3608 C.3       1 <0>        -0.0048
     29 C23        11.1158   -3.3165   -8.4294 C.3       1 <0>        -0.1882
     30 C24        12.3706   -2.4510   -8.5621 C.3       1 <0>        -0.0022
     31 N5         13.2531   -3.0223   -9.5881 N.4       1 <0>        -0.6387
     32 H1          2.8388   -5.2890    4.4164 H         1 <0>         0.0606
     33 H2          2.7127   -3.6622    3.7051 H         1 <0>         0.0512
     34 H3          1.5714   -4.1701    4.9731 H         1 <0>         0.0605
     35 H4          1.7778   -5.3766    2.1769 H         1 <0>         0.0621
     36 H5          0.6365   -5.8845    3.4449 H         1 <0>         0.0733
     37 H6         -0.3457   -3.6079    3.4728 H         1 <0>         0.1003
     38 H7          0.7956   -3.1000    2.2048 H         1 <0>         0.0910
     39 H8         -1.7746   -2.7763    1.3722 H         1 <0>         0.4091
     40 H9         -3.6787   -5.9515   -0.3807 H         1 <0>         0.1073
     41 H10        -3.0587   -5.7549    1.2865 H         1 <0>         0.0895
     42 H11        -5.8180   -5.8616    2.0214 H         1 <0>         0.1239
     43 H12        -7.6941   -4.3160    2.3985 H         1 <0>         0.1304
     44 H13        -7.6609   -2.0703    1.3860 H         1 <0>         0.1299
     45 H14        -5.7517   -1.3759   -0.0008 H         1 <0>         0.1224
     46 H15        -3.0043   -2.0650   -0.3774 H         1 <0>         0.0893
     47 H16        -3.6377   -3.1689   -1.6354 H         1 <0>         0.0982
     48 H17        -0.1998   -3.2693   -1.0263 H         1 <0>         0.4010
     49 H18         0.7048   -5.6588   -2.2298 H         1 <0>         0.0793
     50 H19        -0.1047   -4.6759   -3.4735 H         1 <0>         0.0793
     51 H20         1.3890   -2.7700   -2.9396 H         1 <0>         0.0966
     52 H21         2.1985   -3.7529   -1.6959 H         1 <0>         0.0961
     53 H22         2.8788   -5.3883   -3.4312 H         1 <0>         0.1400
     54 H23         2.0692   -4.4055   -4.6749 H         1 <0>         0.1400
     55 H24         3.5341   -2.6092   -4.1142 H         1 <0>         0.4312
     56 H25         4.9660   -5.1287   -4.5846 H         1 <0>         0.1377
     57 H26         4.1564   -4.1458   -5.8283 H         1 <0>         0.1376
     58 H27         5.6501   -2.2399   -5.2944 H         1 <0>         0.1009
     59 H28         6.4597   -3.2228   -4.0507 H         1 <0>         0.1009
     60 H29         7.1399   -4.8583   -5.7860 H         1 <0>         0.1019
     61 H30         6.3304   -3.8754   -7.0297 H         1 <0>         0.1018
     62 H31         7.8241   -1.9695   -6.4958 H         1 <0>         0.1402
     63 H32         8.6336   -2.9524   -5.2521 H         1 <0>         0.1402
     64 H33         9.2560   -4.4889   -6.9662 H         1 <0>         0.4346
     65 H34         9.9113   -1.7098   -7.6493 H         1 <0>         0.1456
     66 H35        10.7209   -2.6927   -6.4056 H         1 <0>         0.1456
     67 H36        11.4011   -4.3282   -8.1408 H         1 <0>         0.1138
     68 H37        10.5916   -3.3453   -9.3845 H         1 <0>         0.1137
     69 H38        12.0853   -1.4394   -8.8506 H         1 <0>         0.1457
     70 H39        12.8948   -2.4223   -7.6069 H         1 <0>         0.1458
     71 H40        14.0806   -2.4516   -9.6757 H         1 <0>         0.4533
     72 H41        13.5172   -3.9588   -9.3211 H         1 <0>         0.4411
     73 H42        12.7678   -3.0490  -10.4723 H         1 <0>         0.4411
     74 H43         4.2835   -3.5191   -2.9629 H         1 <0>         0.4315
     75 H44         8.5066   -3.5791   -8.1175 H         1 <0>         0.4345
@<TRIPOS>BOND
     1    1    2 1
     2    1   32 1
     3    1   33 1
     4    1   34 1
     5    2    3 1
     6    2   35 1
     7    2   36 1
     8    3    4 1
     9    3   37 1
    10    3   38 1
    11    4    5 2
    12    4    6 am
    13    6    7 1
    14    6   39 1
    15    7   15 1
    16    7    8 1
    17    7   16 1
    18    8    9 1
    19    8   40 1
    20    8   41 1
    21    9   14 ar
    22    9   10 ar
    23   10   11 ar
    24   10   42 1
    25   11   12 ar
    26   11   43 1
    27   12   13 ar
    28   12   44 1
    29   13   14 ar
    30   13   45 1
    31   14   15 1
    32   15   46 1
    33   15   47 1
    34   16   17 2
    35   16   18 am
    36   18   19 1
    37   18   48 1
    38   19   20 1
    39   19   49 1
    40   19   50 1
    41   20   21 1
    42   20   51 1
    43   20   52 1
    44   21   22 1
    45   21   53 1
    46   21   54 1
    47   22   23 1
    48   22   55 1
    49   22   74 1
    50   23   24 1
    51   23   56 1
    52   23   57 1
    53   24   25 1
    54   24   58 1
    55   24   59 1
    56   25   26 1
    57   25   60 1
    58   25   61 1
    59   26   27 1
    60   26   62 1
    61   26   63 1
    62   27   28 1
    63   27   64 1
    64   27   75 1
    65   28   29 1
    66   28   65 1
    67   28   66 1
    68   29   30 1
    69   29   67 1
    70   29   68 1
    71   30   31 1
    72   30   69 1
    73   30   70 1
    74   31   71 1
    75   31   72 1
    76   31   73 1
@<TRIPOS>MOLECULE
CHEMBL194224
   74    75     0     0     0
SMALL
USER_CHARGES

@<TRIPOS>ATOM
      1 C1          2.1490   -4.5024    4.1105 C.3       1 <0>        -0.1559
      2 C2          1.2002   -5.0443    3.0395 C.3       1 <0>        -0.1072
      3 C3          0.2319   -3.9402    2.6102 C.3       1 <0>        -0.1406
      4 C4         -0.7026   -4.4739    1.5553 C.2       1 <0>         0.5095
      5 O1         -0.6039   -5.6241    1.1834 O.2       1 <0>        -0.5205
      6 N1         -1.6481   -3.6731    1.0250 N.am      1 <0>        -0.7235
      7 C5         -2.4849   -4.1571   -0.0758 C.3       1 <0>         0.1601
      8 C6         -3.4682   -5.2397    0.4176 C.3       1 <0>        -0.0756
      9 C7         -4.7265   -4.4888    0.7969 C.ar      1 <0>        -0.0902
     10 C8         -5.8026   -4.8772    1.5775 C.ar      1 <0>        -0.1032
     11 C9         -6.8562   -4.0099    1.7896 C.ar      1 <0>        -0.1074
     12 C10        -6.8376   -2.7497    1.2214 C.ar      1 <0>        -0.1163
     13 C11        -5.7655   -2.3606    0.4427 C.ar      1 <0>        -0.0987
     14 C12        -4.7079   -3.2289    0.2288 C.ar      1 <0>        -0.1126
     15 C13        -3.4359   -3.0470   -0.5712 C.3       1 <0>        -0.0693
     16 C14        -1.6328   -4.6761   -1.2052 C.2       1 <0>         0.5412
     17 O2         -2.0019   -5.6324   -1.8534 O.2       1 <0>        -0.5102
     18 N2         -0.4606   -4.0774   -1.4951 N.am      1 <0>        -0.7323
     19 C15         0.4195   -4.6471   -2.5183 C.3       1 <0>         0.1242
     20 C16         1.6742   -3.7817   -2.6511 C.3       1 <0>        -0.1636
     21 C17         2.5935   -4.3767   -3.7197 C.3       1 <0>        -0.0055
     22 N3          3.7982   -3.5457   -3.8472 N.4       1 <0>        -0.5092
     23 C18         4.6807   -4.1170   -4.8731 C.3       1 <0>        -0.0100
     24 C19         5.9354   -3.2516   -5.0059 C.3       1 <0>        -0.1489
     25 C20         6.8547   -3.8466   -6.0745 C.3       1 <0>        -0.1498
     26 C21         8.1094   -2.9811   -6.2073 C.3       1 <0>        -0.0093
     27 N4          8.9919   -3.5524   -7.2333 N.4       1 <0>        -0.5095
     28 C22        10.1966   -2.7215   -7.3608 C.3       1 <0>        -0.0074
     29 C23        11.1158   -3.3165   -8.4294 C.3       1 <0>        -0.1523
     30 C24        12.3706   -2.4510   -8.5621 C.3       1 <0>         0.0630
     31 N5         13.2531   -3.0223   -9.5881 N.3       1 <0>        -0.8529
     32 H1          2.8388   -5.2890    4.4164 H         1 <0>         0.0607
     33 H2          2.7127   -3.6622    3.7051 H         1 <0>         0.0519
     34 H3          1.5714   -4.1701    4.9731 H         1 <0>         0.0597
     35 H4          1.7778   -5.3766    2.1769 H         1 <0>         0.0631
     36 H5          0.6365   -5.8845    3.4449 H         1 <0>         0.0728
     37 H6         -0.3457   -3.6079    3.4728 H         1 <0>         0.0996
     38 H7          0.7956   -3.1000    2.2048 H         1 <0>         0.0916
     39 H8         -1.7746   -2.7763    1.3722 H         1 <0>         0.4088
     40 H9         -3.6787   -5.9515   -0.3807 H         1 <0>         0.1075
     41 H10        -3.0587   -5.7549    1.2865 H         1 <0>         0.0895
     42 H11        -5.8180   -5.8616    2.0214 H         1 <0>         0.1236
     43 H12        -7.6941   -4.3160    2.3985 H         1 <0>         0.1296
     44 H13        -7.6609   -2.0703    1.3860 H         1 <0>         0.1293
     45 H14        -5.7517   -1.3759   -0.0008 H         1 <0>         0.1224
     46 H15        -3.0043   -2.0650   -0.3774 H         1 <0>         0.0896
     47 H16        -3.6377   -3.1689   -1.6354 H         1 <0>         0.0987
     48 H17        -0.1998   -3.2693   -1.0263 H         1 <0>         0.4010
     49 H18         0.7048   -5.6588   -2.2298 H         1 <0>         0.0795
     50 H19        -0.1047   -4.6759   -3.4735 H         1 <0>         0.0795
     51 H20         1.3890   -2.7700   -2.9396 H         1 <0>         0.0962
     52 H21         2.1985   -3.7529   -1.6959 H         1 <0>         0.0957
     53 H22         2.8788   -5.3883   -3.4312 H         1 <0>         0.1394
     54 H23         2.0692   -4.4055   -4.6749 H         1 <0>         0.1395
     55 H24         3.5341   -2.6092   -4.1142 H         1 <0>         0.4308
     56 H25         4.9660   -5.1287   -4.5846 H         1 <0>         0.1374
     57 H26         4.1564   -4.1458   -5.8283 H         1 <0>         0.1375
     58 H27         5.6501   -2.2399   -5.2944 H         1 <0>         0.0999
     59 H28         6.4597   -3.2228   -4.0507 H         1 <0>         0.0997
     60 H29         7.1399   -4.8583   -5.7860 H         1 <0>         0.1001
     61 H30         6.3304   -3.8754   -7.0297 H         1 <0>         0.1005
     62 H31         7.8241   -1.9695   -6.4958 H         1 <0>         0.1363
     63 H32         8.6336   -2.9524   -5.2521 H         1 <0>         0.1357
     64 H33         9.2560   -4.4889   -6.9662 H         1 <0>         0.4307
     65 H34         9.9113   -1.7098   -7.6493 H         1 <0>         0.1358
     66 H35        10.7209   -2.6927   -6.4056 H         1 <0>         0.1335
     67 H36        11.4011   -4.3282   -8.1408 H         1 <0>         0.0869
     68 H37        10.5916   -3.3453   -9.3845 H         1 <0>         0.0979
     69 H38        12.0853   -1.4394   -8.8506 H         1 <0>         0.0834
     70 H39        12.8948   -2.4223   -7.6069 H         1 <0>         0.0383
     71 H40        14.0896   -2.4683   -9.6948 H         1 <0>         0.3609
     72 H41        13.4799   -3.9824   -9.3762 H         1 <0>         0.3469
     73 H42         4.2835   -3.5191   -2.9629 H         1 <0>         0.4310
     74 H43         8.5066   -3.5791   -8.1175 H         1 <0>         0.4318
@<TRIPOS>BOND
     1    1    2 1
     2    1   32 1
     3    1   33 1
     4    1   34 1
     5    2    3 1
     6    2   35 1
     7    2   36 1
     8    3    4 1
     9    3   37 1
    10    3   38 1
    11    4    5 2
    12    4    6 am
    13    6    7 1
    14    6   39 1
    15    7   15 1
    16    7    8 1
    17    7   16 1
    18    8    9 1
    19    8   40 1
    20    8   41 1
    21    9   14 ar
    22    9   10 ar
    23   10   11 ar
    24   10   42 1
    25   11   12 ar
    26   11   43 1
    27   12   13 ar
    28   12   44 1
    29   13   14 ar
    30   13   45 1
    31   14   15 1
    32   15   46 1
    33   15   47 1
    34   16   17 2
    35   16   18 am
    36   18   19 1
    37   18   48 1
    38   19   20 1
    39   19   49 1
    40   19   50 1
    41   20   21 1
    42   20   51 1
    43   20   52 1
    44   21   22 1
    45   21   53 1
    46   21   54 1
    47   22   23 1
    48   22   55 1
    49   22   73 1
    50   23   24 1
    51   23   56 1
    52   23   57 1
    53   24   25 1
    54   24   58 1
    55   24   59 1
    56   25   26 1
    57   25   60 1
    58   25   61 1
    59   26   27 1
    60   26   62 1
    61   26   63 1
    62   27   28 1
    63   27   64 1
    64   27   74 1
    65   28   29 1
    66   28   65 1
    67   28   66 1
    68   29   30 1
    69   29   67 1
    70   29   68 1
    71   30   31 1
    72   30   69 1
    73   30   70 1
    74   31   71 1
    75   31   72 1
@<TRIPOS>MOLECULE
CHEMBL25440
   97   100     0     0     0
SMALL
USER_CHARGES

@<TRIPOS>ATOM
      1 C1         -0.0164    1.3567    0.0095 C.ar      1 <0>        -0.1195
      2 C2          1.1685    2.0906    0.0021 C.ar      1 <0>        -0.1132
      3 C3          2.3785    1.4679   -0.0132 C.ar      1 <0>        -0.1100
      4 C4          2.4378    0.0637   -0.0214 C.ar      1 <0>        -0.0333
      5 C5          1.2328   -0.6827   -0.0134 C.ar      1 <0>        -0.0520
      6 C6          0.0021   -0.0041    0.0020 C.ar      1 <0>        -0.1012
      7 C7          1.2920   -2.0865   -0.0210 C.ar      1 <0>        -0.1012
      8 C8          2.5022   -2.7094   -0.0359 C.ar      1 <0>        -0.1149
      9 C9          3.6867   -1.9757   -0.0433 C.ar      1 <0>        -0.0999
     10 C10         3.6681   -0.6146   -0.0367 C.ar      1 <0>        -0.0613
     11 C11         4.9603    0.1606   -0.0459 C.3       1 <0>        -0.1037
     12 C12         5.3414    0.5186    1.3675 C.2       1 <0>         0.5138
     13 O1          4.6334    0.1777    2.2913 O.2       1 <0>        -0.5221
     14 N1          6.4691    1.2175    1.6049 N.am      1 <0>        -0.7376
     15 C13         6.8396    1.5655    2.9789 C.3       1 <0>         0.1191
     16 C14         8.1516    2.3525    2.9696 C.3       1 <0>        -0.1320
     17 C15         8.5385    2.7160    4.4046 C.3       1 <0>        -0.1168
     18 C16         9.8505    3.5030    4.3953 C.3       1 <0>        -0.1060
     19 C17        10.2374    3.8664    5.8302 C.3       1 <0>        -0.1407
     20 C18        11.5297    4.6417    5.8211 C.2       1 <0>         0.5174
     21 O2         12.0864    4.8801    4.7703 O.2       1 <0>        -0.5229
     22 N2         12.0667    5.0701    6.9806 N.am      1 <0>        -0.6252
     23 C19        11.4073    4.7839    8.2619 C.3       1 <0>         0.1042
     24 C20        11.2101    6.1004    9.0199 C.3       1 <0>        -0.1287
     25 C21        12.5569    6.8150    9.1521 C.3       1 <0>        -0.1154
     26 C22        13.1044    7.1367    7.7596 C.3       1 <0>        -0.1428
     27 C23        13.3260    5.8270    6.9877 C.3       1 <0>         0.1094
     28 C24        12.3698    8.1138    9.9388 C.3       1 <0>        -0.0056
     29 N3         13.6788    8.7396   10.1692 N.4       1 <0>        -0.5118
     30 C25        13.4991    9.9867   10.9245 C.3       1 <0>        -0.0094
     31 C26        14.8624   10.6385   11.1645 C.3       1 <0>        -0.1507
     32 C27        14.6753   11.9373   11.9512 C.3       1 <0>        -0.1493
     33 C28        16.0385   12.5891   12.1912 C.3       1 <0>        -0.0109
     34 N4         15.8589   13.8362   12.9465 N.4       1 <0>        -0.5124
     35 C29        17.1678   14.4620   13.1769 C.3       1 <0>        -0.0058
     36 C30        16.9807   15.7608   13.9636 C.3       1 <0>        -0.1309
     37 C31        16.2047   16.7687   13.1110 C.3       1 <0>        -0.1621
     38 C32        16.0902   18.0913   13.8721 C.3       1 <0>        -0.0063
     39 N5         17.4320   18.6161   14.1528 N.4       1 <0>        -0.5089
     40 C33        18.1565   17.6880   15.0293 C.3       1 <0>        -0.0089
     41 C34        18.3505   16.3500   14.3126 C.3       1 <0>        -0.1417
     42 H1         -0.9634    1.8756    0.0259 H         1 <0>         0.1240
     43 H2          1.1258    3.1698    0.0084 H         1 <0>         0.1211
     44 H3          3.2883    2.0497   -0.0195 H         1 <0>         0.1188
     45 H4         -0.9241   -0.5595    0.0082 H         1 <0>         0.1288
     46 H5          0.3820   -2.6682   -0.0147 H         1 <0>         0.1291
     47 H6          2.5450   -3.7886   -0.0417 H         1 <0>         0.1259
     48 H7          4.6338   -2.4947   -0.0548 H         1 <0>         0.1214
     49 H8          5.7467   -0.4491   -0.4909 H         1 <0>         0.1065
     50 H9          4.8331    1.0722   -0.6299 H         1 <0>         0.1051
     51 H10         7.0354    1.4901    0.8661 H         1 <0>         0.4013
     52 H11         6.0533    2.1752    3.4239 H         1 <0>         0.0660
     53 H12         6.9669    0.6539    3.5629 H         1 <0>         0.0670
     54 H13         8.9379    1.7428    2.5246 H         1 <0>         0.0723
     55 H14         8.0243    3.2641    2.3857 H         1 <0>         0.0708
     56 H15         7.7522    3.3257    4.8496 H         1 <0>         0.0667
     57 H16         8.6658    1.8044    4.9885 H         1 <0>         0.0686
     58 H17        10.6368    2.8933    3.9503 H         1 <0>         0.0735
     59 H18         9.7232    4.4146    3.8113 H         1 <0>         0.0713
     60 H19         9.4511    4.4762    6.2752 H         1 <0>         0.0950
     61 H20        10.3647    2.9549    6.4142 H         1 <0>         0.0980
     62 H21        10.4385    4.3192    8.0785 H         1 <0>         0.1025
     63 H22        12.0311    4.1124    8.8519 H         1 <0>         0.0775
     64 H23        10.5138    6.7350    8.4718 H         1 <0>         0.0821
     65 H24        10.8097    5.8925   10.0122 H         1 <0>         0.0913
     66 H25        13.2602    6.1698    9.6786 H         1 <0>         0.1001
     67 H26        12.3903    7.7615    7.2233 H         1 <0>         0.0848
     68 H27        14.0523    7.6663    7.8548 H         1 <0>         0.0653
     69 H28        14.1031    5.2389    7.4760 H         1 <0>         0.0723
     70 H29        13.6236    6.0509    5.9633 H         1 <0>         0.1037
     71 H30        11.7365    8.7949    9.3703 H         1 <0>         0.1354
     72 H31        11.8987    7.8937   10.8967 H         1 <0>         0.1380
     73 H32        14.2650    8.1092   10.6954 H         1 <0>         0.4311
     74 H33        12.8658   10.6678   10.3561 H         1 <0>         0.1358
     75 H34        13.0279    9.7666   11.8825 H         1 <0>         0.1371
     76 H35        15.4957    9.9574   11.7329 H         1 <0>         0.1016
     77 H36        15.3335   10.8586   10.2065 H         1 <0>         0.1004
     78 H37        14.0419   12.6184   11.3828 H         1 <0>         0.1000
     79 H38        14.2041   11.7172   12.9092 H         1 <0>         0.1016
     80 H39        16.6719   11.9081   12.7596 H         1 <0>         0.1408
     81 H40        16.5097   12.8092   11.2332 H         1 <0>         0.1391
     82 H41        15.2726   14.4666   12.4203 H         1 <0>         0.4274
     83 H42        17.8011   13.7809   13.7454 H         1 <0>         0.1466
     84 H43        17.6390   14.6821   12.2190 H         1 <0>         0.1415
     85 H44        16.4280   15.5553   14.8804 H         1 <0>         0.1156
     86 H45        16.7327   16.9338   12.1718 H         1 <0>         0.1058
     87 H46        15.2074   16.3798   12.9051 H         1 <0>         0.1059
     88 H47        15.5381   18.8111   13.2679 H         1 <0>         0.1453
     89 H48        15.5618   17.9251   14.8109 H         1 <0>         0.1373
     90 H49        17.9380   18.7234   13.2865 H         1 <0>         0.4322
     91 H50        19.1298   18.1102   15.2793 H         1 <0>         0.1480
     92 H51        17.5841   17.5305   15.9434 H         1 <0>         0.1376
     93 H52        18.8870   15.6617   14.9657 H         1 <0>         0.1260
     94 H53        18.9231   16.5064   13.3984 H         1 <0>         0.1025
     95 H54        17.3527   19.5136   14.6071 H         1 <0>         0.4453
     96 H55        14.1149    8.9434    9.2824 H         1 <0>         0.4290
     97 H56        15.4227   13.6324   13.8333 H         1 <0>         0.4336
@<TRIPOS>BOND
     1    1    6 ar
     2    1    2 ar
     3    1   42 1
     4    2    3 ar
     5    2   43 1
     6    3    4 ar
     7    3   44 1
     8    4   10 ar
     9    4    5 ar
    10    5    6 ar
    11    5    7 ar
    12    6   45 1
    13    7    8 ar
    14    7   46 1
    15    8    9 ar
    16    8   47 1
    17    9   10 ar
    18    9   48 1
    19   10   11 1
    20   11   12 1
    21   11   49 1
    22   11   50 1
    23   12   13 2
    24   12   14 am
    25   14   15 1
    26   14   51 1
    27   15   16 1
    28   15   52 1
    29   15   53 1
    30   16   17 1
    31   16   54 1
    32   16   55 1
    33   17   18 1
    34   17   56 1
    35   17   57 1
    36   18   19 1
    37   18   58 1
    38   18   59 1
    39   19   20 1
    40   19   60 1
    41   19   61 1
    42   20   21 2
    43   20   22 am
    44   22   27 1
    45   22   23 1
    46   23   24 1
    47   23   62 1
    48   23   63 1
    49   24   25 1
    50   24   64 1
    51   24   65 1
    52   25   26 1
    53   25   28 1
    54   25   66 1
    55   26   27 1
    56   26   67 1
    57   26   68 1
    58   27   69 1
    59   27   70 1
    60   28   29 1
    61   28   71 1
    62   28   72 1
    63   29   30 1
    64   29   73 1
    65   29   96 1
    66   30   31 1
    67   30   74 1
    68   30   75 1
    69   31   32 1
    70   31   76 1
    71   31   77 1
    72   32   33 1
    73   32   78 1
    74   32   79 1
    75   33   34 1
    76   33   80 1
    77   33   81 1
    78   34   35 1
    79   34   82 1
    80   34   97 1
    81   35   36 1
    82   35   83 1
    83   35   84 1
    84   36   41 1
    85   36   37 1
    86   36   85 1
    87   37   38 1
    88   37   86 1
    89   37   87 1
    90   38   39 1
    91   38   88 1
    92   38   89 1
    93   39   40 1
    94   39   90 1
    95   39   95 1
    96   40   41 1
    97   40   91 1
    98   40   92 1
    99   41   93 1
   100   41   94 1
@<TRIPOS>MOLECULE
CHEMBL283157
   92    95     0     0     0
SMALL
USER_CHARGES

@<TRIPOS>ATOM
      1 C1         -0.1409    0.2549    0.7712 C.ar      1 <0>        -0.1202
      2 C2          0.9764    1.0445    0.5048 C.ar      1 <0>        -0.1119
      3 C3          2.2291    0.5129    0.5165 C.ar      1 <0>        -0.1123
      4 C4          2.4024   -0.8524    0.8014 C.ar      1 <0>        -0.0322
      5 C5          1.2662   -1.6554    1.0728 C.ar      1 <0>        -0.0518
      6 C6         -0.0117   -1.0706    1.0511 C.ar      1 <0>        -0.0988
      7 C7          1.4395   -3.0201    1.3581 C.ar      1 <0>        -0.0991
      8 C8          2.6926   -3.5519    1.3703 C.ar      1 <0>        -0.1148
      9 C9          3.8094   -2.7625    1.1040 C.ar      1 <0>        -0.0972
     10 C10         3.6799   -1.4369    0.8231 C.ar      1 <0>        -0.0636
     11 C11         4.9004   -0.6005    0.5368 C.3       1 <0>        -0.1013
     12 C12         5.3507    0.0810    1.8033 C.2       1 <0>         0.5207
     13 O1          4.7405   -0.0951    2.8366 O.2       1 <0>        -0.5245
     14 N1          6.4313    0.8862    1.7876 N.am      1 <0>        -0.7119
     15 C13         6.8018    1.6383    2.9890 C.3       1 <0>         0.1480
     16 H1          6.6273    1.0227    3.8714 H         1 <0>         0.1199
     17 C14         5.9535    2.9085    3.0774 C.3       1 <0>        -0.1641
     18 C15         6.2167    3.7733    1.8716 C.2       1 <0>         0.5094
     19 O2          6.9263    3.3659    0.9764 O.2       1 <0>        -0.5154
     20 N2          5.6636    4.9995    1.7881 N.am      1 <0>        -0.8577
     21 C16         8.2600    2.0122    2.9178 C.2       1 <0>         0.5209
     22 O3          8.8967    1.7816    1.9117 O.2       1 <0>        -0.4921
     23 N3          8.8565    2.6027    3.9723 N.am      1 <0>        -0.6215
     24 C17         8.1201    2.8176    5.2254 C.3       1 <0>         0.0933
     25 C18         8.2196    4.2976    5.6082 C.3       1 <0>        -0.1300
     26 C19         9.6930    4.7072    5.6669 C.3       1 <0>        -0.1153
     27 C20        10.3314    4.5208    4.2885 C.3       1 <0>        -0.1428
     28 C21        10.2575    3.0383    3.8926 C.3       1 <0>         0.1132
     29 C22         9.7976    6.1759    6.0827 C.3       1 <0>        -0.0058
     30 N4         11.2112    6.5365    6.2554 N.4       1 <0>        -0.5119
     31 C23        11.3115    7.9466    6.6546 C.3       1 <0>        -0.0093
     32 C24        12.7838    8.3221    6.8345 C.3       1 <0>        -0.1509
     33 C25        12.8884    9.7908    7.2503 C.3       1 <0>        -0.1492
     34 C26        14.3606   10.1664    7.4302 C.3       1 <0>        -0.0110
     35 N5         14.4610   11.5765    7.8294 N.4       1 <0>        -0.5124
     36 C27        15.8746   11.9371    8.0021 C.3       1 <0>        -0.0059
     37 C28        15.9791   13.4058    8.4179 C.3       1 <0>        -0.1309
     38 C29        15.4796   14.2977    7.2776 C.3       1 <0>        -0.1621
     39 C30        15.6609   15.7659    7.6688 C.3       1 <0>        -0.0063
     40 N6         17.0816   16.0377    7.9182 N.4       1 <0>        -0.5088
     41 C31        17.5493   15.2384    9.0570 C.3       1 <0>        -0.0089
     42 C32        17.4406   13.7499    8.7192 C.3       1 <0>        -0.1417
     43 H2         -1.1236    0.7027    0.7596 H         1 <0>         0.1244
     44 H3          0.8459    2.0939    0.2855 H         1 <0>         0.1199
     45 H4          3.0855    1.1368    0.3075 H         1 <0>         0.1163
     46 H5         -0.8864   -1.6700    1.2559 H         1 <0>         0.1297
     47 H6          0.5830   -3.6440    1.5671 H         1 <0>         0.1299
     48 H7          2.8230   -4.6012    1.5899 H         1 <0>         0.1267
     49 H8          4.7926   -3.2092    1.1203 H         1 <0>         0.1218
     50 H9          5.7003   -1.2405    0.1645 H         1 <0>         0.1089
     51 H10         4.6576    0.1515   -0.2139 H         1 <0>         0.1073
     52 H11         6.9638    0.9677    0.9810 H         1 <0>         0.4198
     53 H12         4.8978    2.6389    3.1076 H         1 <0>         0.1195
     54 H13         6.2143    3.4575    3.9822 H         1 <0>         0.1035
     55 H14         5.0960    5.3254    2.5041 H         1 <0>         0.4005
     56 H15         5.8330    5.5561    1.0120 H         1 <0>         0.4044
     57 H16         7.0738    2.5459    5.0855 H         1 <0>         0.1040
     58 H17         8.5562    2.2058    6.0150 H         1 <0>         0.0832
     59 H18         7.7035    4.9018    4.8622 H         1 <0>         0.0807
     60 H19         7.7598    4.4526    6.5842 H         1 <0>         0.0941
     61 H20        10.2139    4.0858    6.3953 H         1 <0>         0.1022
     62 H21         9.7953    5.1230    3.5549 H         1 <0>         0.0844
     63 H22        11.3745    4.8348    4.3253 H         1 <0>         0.0664
     64 H23        10.8643    2.4441    4.5758 H         1 <0>         0.0747
     65 H24        10.6219    2.9124    2.8731 H         1 <0>         0.1048
     66 H25         9.3540    6.8045    5.3107 H         1 <0>         0.1347
     67 H26         9.2669    6.3260    7.0229 H         1 <0>         0.1385
     68 H27        11.6218    5.9545    6.9701 H         1 <0>         0.4315
     69 H28        10.8679    8.5753    5.8826 H         1 <0>         0.1356
     70 H29        10.7808    8.0967    7.5948 H         1 <0>         0.1372
     71 H30        13.2274    7.6935    7.6066 H         1 <0>         0.1019
     72 H31        13.3145    8.1720    5.8944 H         1 <0>         0.1005
     73 H32        12.4447   10.4195    6.4783 H         1 <0>         0.0999
     74 H33        12.3576    9.9410    8.1905 H         1 <0>         0.1016
     75 H34        14.8042    9.5377    8.2022 H         1 <0>         0.1409
     76 H35        14.8913   10.0163    6.4900 H         1 <0>         0.1391
     77 H36        14.0503   12.1585    7.1147 H         1 <0>         0.4274
     78 H37        16.3182   11.3084    8.7742 H         1 <0>         0.1467
     79 H38        16.4053   11.7870    7.0620 H         1 <0>         0.1415
     80 H39        15.3735   13.5766    9.3079 H         1 <0>         0.1156
     81 H40        16.0523   14.0883    6.3742 H         1 <0>         0.1058
     82 H41        14.4239   14.0974    7.0947 H         1 <0>         0.1059
     83 H42        15.3060   16.4036    6.8592 H         1 <0>         0.1452
     84 H43        15.0876   15.9742    8.5722 H         1 <0>         0.1373
     85 H44        17.6179   15.7982    7.0977 H         1 <0>         0.4322
     86 H45        18.5885   15.4867    9.2722 H         1 <0>         0.1481
     87 H46        16.9357   15.4580    9.9308 H         1 <0>         0.1376
     88 H47        17.7866   13.1582    9.5667 H         1 <0>         0.1260
     89 H48        18.0541   13.5292    7.8457 H         1 <0>         0.1025
     90 H49        17.2045   17.0179    8.1235 H         1 <0>         0.4453
     91 H50        11.7024    6.3975    5.3851 H         1 <0>         0.4291
     92 H51        13.9697   11.7155    8.6997 H         1 <0>         0.4335
@<TRIPOS>BOND
     1    1    6 ar
     2    1    2 ar
     3    1   43 1
     4    2    3 ar
     5    2   44 1
     6    3    4 ar
     7    3   45 1
     8    4   10 ar
     9    4    5 ar
    10    5    6 ar
    11    5    7 ar
    12    6   46 1
    13    7    8 ar
    14    7   47 1
    15    8    9 ar
    16    8   48 1
    17    9   10 ar
    18    9   49 1
    19   10   11 1
    20   11   12 1
    21   11   50 1
    22   11   51 1
    23   12   13 2
    24   12   14 am
    25   14   15 1
    26   14   52 1
    27   15   16 1
    28   15   17 1
    29   15   21 1
    30   17   18 1
    31   17   53 1
    32   17   54 1
    33   18   19 2
    34   18   20 am
    35   20   55 1
    36   20   56 1
    37   21   22 2
    38   21   23 am
    39   23   28 1
    40   23   24 1
    41   24   25 1
    42   24   57 1
    43   24   58 1
    44   25   26 1
    45   25   59 1
    46   25   60 1
    47   26   27 1
    48   26   29 1
    49   26   61 1
    50   27   28 1
    51   27   62 1
    52   27   63 1
    53   28   64 1
    54   28   65 1
    55   29   30 1
    56   29   66 1
    57   29   67 1
    58   30   31 1
    59   30   68 1
    60   30   91 1
    61   31   32 1
    62   31   69 1
    63   31   70 1
    64   32   33 1
    65   32   71 1
    66   32   72 1
    67   33   34 1
    68   33   73 1
    69   33   74 1
    70   34   35 1
    71   34   75 1
    72   34   76 1
    73   35   36 1
    74   35   77 1
    75   35   92 1
    76   36   37 1
    77   36   78 1
    78   36   79 1
    79   37   42 1
    80   37   38 1
    81   37   80 1
    82   38   39 1
    83   38   81 1
    84   38   82 1
    85   39   40 1
    86   39   83 1
    87   39   84 1
    88   40   41 1
    89   40   85 1
    90   40   90 1
    91   41   42 1
    92   41   86 1
    93   41   87 1
    94   42   88 1
    95   42   89 1
