@<TRIPOS>MOLECULE
CHEMBL192850
   46    49     0     0     0
SMALL
USER_CHARGES

@<TRIPOS>ATOM
      1 C1         -0.4154    1.0399    0.5227 C.3       1 <0>        -0.1474
      2 C2         -0.5606   -0.4832    0.5276 C.3       1 <0>        -0.5745
      3 C3         -0.0116   -1.0436    1.8411 C.3       1 <0>        -0.1459
      4 S1         -2.3129   -0.9241    0.3675 S.o2      1 <0>         2.5790
      5 O1         -2.4503   -2.3274    0.1912 O.2       1 <0>        -0.9298
      6 O2         -3.0815   -0.2383    1.3463 O.2       1 <0>        -0.9134
      7 N1         -2.7865   -0.2683   -1.0774 N.pl3     1 <0>        -0.8547
      8 C4         -3.3017    1.0032   -1.2738 C.ar      1 <0>         0.0345
      9 C5         -3.5767    2.0663   -0.4319 C.ar      1 <0>        -0.0812
     10 C6         -4.1071    3.2432   -0.9596 C.ar      1 <0>        -0.0188
     11 C7         -4.3589    3.3458   -2.3336 C.ar      1 <0>        -0.0728
     12 C8         -4.0895    2.3002   -3.1662 C.ar      1 <0>        -0.0779
     13 C9         -3.5569    1.1132   -2.6521 C.ar      1 <0>         0.1164
     14 N2         -3.1949   -0.0666   -3.2201 N.2       1 <0>        -0.5227
     15 C10        -2.7368   -0.8773   -2.2988 C.2       1 <0>         0.5735
     16 N3         -2.2766   -2.1568   -2.5275 N.pl3     1 <0>        -0.8201
     17 C11        -4.4041    4.3821   -0.0688 C.2       1 <0>         0.0380
     18 C12        -5.5680    5.1283   -0.0350 C.2       1 <0>         0.0620
     19 N4         -5.4207    6.0650    0.9209 N.2       1 <0>        -0.4748
     20 C13        -4.2468    5.9436    1.4746 C.2       1 <0>         0.2005
     21 N5         -3.5807    4.9106    0.8988 N.pl3     1 <0>        -0.5634
     22 H1         -2.6892    4.6033    1.1259 H         1 <0>         0.4231
     23 C14        -6.7590    4.9331   -0.8940 C.ar      1 <0>        -0.0148
     24 C15        -7.2296    3.6464   -1.1556 C.ar      1 <0>        -0.0702
     25 C16        -8.3391    3.4699   -1.9562 C.ar      1 <0>        -0.1515
     26 C17        -8.9857    4.5680   -2.5001 C.ar      1 <0>         0.1012
     27 C18        -8.5221    5.8482   -2.2431 C.ar      1 <0>        -0.1542
     28 C19        -7.4168    6.0356   -1.4391 C.ar      1 <0>        -0.0630
     29 F1        -10.0716    4.3899   -3.2838 F         1 <0>        -0.1396
     30 H2          0.6375    1.3048    0.6188 H         1 <0>         0.0909
     31 H3         -0.8065    1.4391   -0.4131 H         1 <0>         0.0717
     32 H4         -0.9738    1.4607    1.3588 H         1 <0>         0.0786
     33 H5         -0.0022   -0.9041   -0.3086 H         1 <0>         0.1435
     34 H6         -0.5700   -0.6228    2.6773 H         1 <0>         0.0778
     35 H7         -0.1150   -2.1287    1.8446 H         1 <0>         0.0776
     36 H8          1.0414   -0.7787    1.9373 H         1 <0>         0.0947
     37 H9         -3.3822    1.9851    0.6273 H         1 <0>         0.1380
     38 H10        -4.7697    4.2598   -2.7365 H         1 <0>         0.1385
     39 H11        -4.2877    2.3885   -4.2242 H         1 <0>         0.1409
     40 H12        -1.9554   -2.6962   -1.7880 H         1 <0>         0.4216
     41 H13        -2.2741   -2.5176   -3.4279 H         1 <0>         0.4323
     42 H14        -3.8652    6.5656    2.2707 H         1 <0>         0.2142
     43 H15        -6.7261    2.7898   -0.7325 H         1 <0>         0.1316
     44 H16        -8.7041    2.4740   -2.1597 H         1 <0>         0.1367
     45 H17        -9.0295    6.7010   -2.6693 H         1 <0>         0.1375
     46 H18        -7.0591    7.0341   -1.2354 H         1 <0>         0.1365
@<TRIPOS>BOND
     1    1    2 1
     2    1   30 1
     3    1   31 1
     4    1   32 1
     5    2    3 1
     6    2    4 1
     7    2   33 1
     8    3   34 1
     9    3   35 1
    10    3   36 1
    11    4    5 2
    12    4    6 2
    13    4    7 1
    14    7   15 1
    15    7    8 1
    16    8   13 ar
    17    8    9 ar
    18    9   10 ar
    19    9   37 1
    20   10   11 ar
    21   10   17 1
    22   11   12 ar
    23   11   38 1
    24   12   13 ar
    25   12   39 1
    26   13   14 1
    27   14   15 2
    28   15   16 1
    29   16   40 1
    30   16   41 1
    31   17   21 1
    32   17   18 2
    33   18   19 1
    34   18   23 1
    35   19   20 2
    36   20   21 1
    37   20   42 1
    38   21   22 1
    39   23   28 ar
    40   23   24 ar
    41   24   25 ar
    42   24   43 1
    43   25   26 ar
    44   25   44 1
    45   26   27 ar
    46   26   29 1
    47   27   28 ar
    48   27   45 1
    49   28   46 1
@<TRIPOS>MOLECULE
CHEMBL192850
   46    49     0     0     0
SMALL
USER_CHARGES

@<TRIPOS>ATOM
      1 C1         -0.0187    1.5258    0.0104 C.3       1 <0>        -0.1469
      2 C2          0.0021   -0.0041    0.0020 C.3       1 <0>        -0.5746
      3 C3         -1.4333   -0.5336    0.0129 C.3       1 <0>        -0.1454
      4 S1          0.8511   -0.5891   -1.4904 S.o2      1 <0>         2.5782
      5 O1          1.0369   -1.9965   -1.4280 O.2       1 <0>        -0.9330
      6 O2          0.2851    0.0164   -2.6447 O.2       1 <0>        -0.9083
      7 N1          2.3780    0.0437   -1.3871 N.pl3     1 <0>        -0.8536
      8 C4          2.7950    1.2696   -1.8806 C.ar      1 <0>         0.0332
      9 C5          2.1616    2.2949   -2.5619 C.ar      1 <0>        -0.0632
     10 C6          2.8842    3.4281   -2.9259 C.ar      1 <0>        -0.0042
     11 C7          4.2420    3.5284   -2.6049 C.ar      1 <0>        -0.0866
     12 C8          4.8711    2.5209   -1.9341 C.ar      1 <0>        -0.0822
     13 C9          4.1595    1.3764   -1.5604 C.ar      1 <0>         0.1093
     14 N2          4.5051    0.2390   -0.9022 N.2       1 <0>        -0.5237
     15 C10         3.4597   -0.5427   -0.7944 C.2       1 <0>         0.5697
     16 N3          3.4531   -1.7760   -0.1775 N.pl3     1 <0>        -0.8221
     17 C11         2.2139    4.5294   -3.6550 C.2       1 <0>         0.0693
     18 C12         2.4804    5.8798   -3.5217 C.2       1 <0>         0.0283
     19 N4          1.6262    6.5271   -4.3853 N.pl3     1 <0>        -0.5628
     20 C13         0.8825    5.5763   -5.0044 C.2       1 <0>         0.2018
     21 N5          1.2378    4.3984   -4.5729 N.2       1 <0>        -0.4734
     22 H1          1.5667    7.4851   -4.5251 H         1 <0>         0.4240
     23 C14         3.4803    6.5023   -2.6312 C.ar      1 <0>        -0.0316
     24 C15         3.6018    6.0757   -1.3069 C.ar      1 <0>        -0.0593
     25 C16         4.5378    6.6605   -0.4801 C.ar      1 <0>        -0.1476
     26 C17         5.3566    7.6700   -0.9608 C.ar      1 <0>         0.1072
     27 C18         5.2403    8.0978   -2.2738 C.ar      1 <0>        -0.1502
     28 C19         4.3122    7.5161   -3.1117 C.ar      1 <0>        -0.0807
     29 F1          6.2715    8.2396   -0.1461 F         1 <0>        -0.1361
     30 H2          1.0039    1.9031    0.0027 H         1 <0>         0.0717
     31 H3         -0.5459    1.8868   -0.8726 H         1 <0>         0.0815
     32 H4         -0.5289    1.8773    0.9072 H         1 <0>         0.0888
     33 H5          0.5293   -0.3651    0.8851 H         1 <0>         0.1418
     34 H6         -1.9605   -0.1726   -0.8702 H         1 <0>         0.0783
     35 H7         -1.4185   -1.6235    0.0069 H         1 <0>         0.0765
     36 H8         -1.9435   -0.1821    0.9097 H         1 <0>         0.0935
     37 H9          1.1134    2.2161   -2.8098 H         1 <0>         0.1448
     38 H10         4.7966    4.4100   -2.8906 H         1 <0>         0.1332
     39 H11         5.9199    2.6071   -1.6913 H         1 <0>         0.1368
     40 H12         2.6351   -2.2962   -0.1422 H         1 <0>         0.4209
     41 H13         4.2663   -2.1232    0.2212 H         1 <0>         0.4309
     42 H14         0.1178    5.7654   -5.7432 H         1 <0>         0.2145
     43 H15         2.9638    5.2896   -0.9310 H         1 <0>         0.1385
     44 H16         4.6326    6.3314    0.5442 H         1 <0>         0.1416
     45 H17         5.8806    8.8854   -2.6428 H         1 <0>         0.1396
     46 H18         4.2255    7.8472   -4.1361 H         1 <0>         0.1317
@<TRIPOS>BOND
     1    1    2 1
     2    1   30 1
     3    1   31 1
     4    1   32 1
     5    2    3 1
     6    2    4 1
     7    2   33 1
     8    3   34 1
     9    3   35 1
    10    3   36 1
    11    4    5 2
    12    4    6 2
    13    4    7 1
    14    7   15 1
    15    7    8 1
    16    8   13 ar
    17    8    9 ar
    18    9   10 ar
    19    9   37 1
    20   10   11 ar
    21   10   17 1
    22   11   12 ar
    23   11   38 1
    24   12   13 ar
    25   12   39 1
    26   13   14 1
    27   14   15 2
    28   15   16 1
    29   16   40 1
    30   16   41 1
    31   17   21 1
    32   17   18 2
    33   18   23 1
    34   18   19 1
    35   19   20 1
    36   19   22 1
    37   20   42 1
    38   20   21 2
    39   23   28 ar
    40   23   24 ar
    41   24   25 ar
    42   24   43 1
    43   25   26 ar
    44   25   44 1
    45   26   27 ar
    46   26   29 1
    47   27   28 ar
    48   27   45 1
    49   28   46 1
@<TRIPOS>MOLECULE
CHEMBL501315
   91    95     0     0     0
SMALL
USER_CHARGES

@<TRIPOS>ATOM
      1 C1          8.8189   -8.4303   -2.0516 C.3       1 <0>        -0.1827
      2 C2          7.3626   -8.4493   -1.5829 C.3       1 <0>         0.0327
      3 H1          7.1671   -9.3749   -1.0416 H         1 <0>         0.1471
      4 C3          6.4350   -8.3627   -2.7969 C.3       1 <0>         0.0296
      5 N1          5.0372   -8.3617   -2.3426 N.3       1 <0>        -0.5344
      6 C4          4.7841   -7.2338   -1.4349 C.3       1 <0>         0.0275
      7 C5          5.7254   -7.3297   -0.2322 C.3       1 <0>         0.0322
      8 H2          5.5383   -8.2611    0.3022 H         1 <0>         0.1468
      9 N2          7.1184   -7.3032   -0.6972 N.4       1 <0>        -0.5067
     10 C6          5.4779   -6.1456    0.7047 C.3       1 <0>        -0.1829
     11 C7          4.1127   -8.3366   -3.4840 C.3       1 <0>         0.0973
     12 C8          2.7328   -8.7277   -3.0215 C.ar      1 <0>        -0.0934
     13 C9          2.3930  -10.0648   -2.9210 C.ar      1 <0>        -0.0875
     14 C10         1.1306  -10.4287   -2.4980 C.ar      1 <0>        -0.1025
     15 C11         0.1979   -9.4463   -2.1718 C.ar      1 <0>        -0.0288
     16 C12         0.5456   -8.1010   -2.2749 C.ar      1 <0>        -0.1091
     17 C13         1.8126   -7.7484   -2.6936 C.ar      1 <0>        -0.1113
     18 C14        -1.1611   -9.8315   -1.7169 C.ar      1 <0>        -0.0531
     19 C15        -1.9606  -10.6475   -2.5149 C.ar      1 <0>        -0.1005
     20 C16        -3.2233  -11.0030   -2.0867 C.ar      1 <0>        -0.1131
     21 C17        -3.6959  -10.5508   -0.8677 C.ar      1 <0>        -0.1080
     22 C18        -2.9069   -9.7404   -0.0719 C.ar      1 <0>        -0.1004
     23 C19        -1.6400   -9.3833   -0.4878 C.ar      1 <0>        -0.1022
     24 C20        -0.7790   -8.5053    0.3833 C.3       1 <0>         0.1531
     25 N3         -1.5322   -8.1127    1.5769 N.am      1 <0>        -0.6276
     26 C21        -1.4001   -8.8867    2.8138 C.3       1 <0>         0.1381
     27 C22        -0.2604   -8.3108    3.6565 C.3       1 <0>        -0.0901
     28 C23        -0.1246   -9.1069    4.9288 C.ar      1 <0>        -0.0451
     29 C24        -0.8401   -8.7392    6.0536 C.ar      1 <0>        -0.1480
     30 C25        -0.7178   -9.4675    7.2223 C.ar      1 <0>        -0.0747
     31 C26         0.1206  -10.5647    7.2693 C.ar      1 <0>        -0.2093
     32 C27         0.8394  -10.9356    6.1425 C.ar      1 <0>         0.1275
     33 C28         0.7102  -10.2067    4.9689 C.ar      1 <0>        -0.1510
     34 O1          1.6646  -12.0145    6.1862 O.3       1 <0>        -0.3202
     35 C29         1.7436  -12.7211    7.4257 C.3       1 <0>         0.0262
     36 C30        -2.3465   -7.0395    1.5372 C.2       1 <0>         0.7068
     37 O2         -2.9042   -6.6618    2.5494 O.2       1 <0>        -0.5763
     38 N4         -2.5427   -6.3851    0.3754 N.am      1 <0>        -0.7403
     39 C31        -3.3404   -5.1566    0.3524 C.3       1 <0>         0.1650
     40 C32        -4.8277   -5.5147    0.3247 C.3       1 <0>        -0.1289
     41 C33        -5.6608   -4.2316    0.3007 C.3       1 <0>        -0.1180
     42 C34        -5.3088   -3.4183   -0.9465 C.3       1 <0>        -0.1233
     43 C35        -3.8216   -3.0602   -0.9188 C.3       1 <0>        -0.1154
     44 C36        -2.9884   -4.3432   -0.8948 C.3       1 <0>        -0.1247
     45 H3          9.4797   -8.4921   -1.1869 H         1 <0>         0.0861
     46 H4          9.0002   -9.2808   -2.7088 H         1 <0>         0.1090
     47 H5          9.0144   -7.5047   -2.5929 H         1 <0>         0.0808
     48 H6          6.6395   -7.4436   -3.3461 H         1 <0>         0.0618
     49 H7          6.6055   -9.2209   -3.4469 H         1 <0>         0.1240
     50 H8          4.9615   -6.2961   -1.9617 H         1 <0>         0.0611
     51 H9          3.7503   -7.2683   -1.0913 H         1 <0>         0.1248
     52 H10         7.7388   -7.3540    0.0969 H         1 <0>         0.4297
     53 H11         4.4442   -6.1653    1.0498 H         1 <0>         0.1086
     54 H12         6.1484   -6.2139    1.5614 H         1 <0>         0.0864
     55 H13         5.6649   -5.2142    0.1703 H         1 <0>         0.0809
     56 H14         4.0834   -7.3319   -3.9057 H         1 <0>         0.0568
     57 H15         4.4542   -9.0397   -4.2437 H         1 <0>         0.0965
     58 H16         3.1167  -10.8254   -3.1744 H         1 <0>         0.1253
     59 H17         0.8662  -11.4729   -2.4203 H         1 <0>         0.1277
     60 H18        -0.1737   -7.3355   -2.0237 H         1 <0>         0.1231
     61 H19         2.0848   -6.7060   -2.7693 H         1 <0>         0.1198
     62 H20        -1.5927  -11.0008   -3.4669 H         1 <0>         0.1251
     63 H21        -3.8439  -11.6351   -2.7046 H         1 <0>         0.1269
     64 H22        -4.6848  -10.8315   -0.5364 H         1 <0>         0.1250
     65 H23        -3.2811   -9.3896    0.8786 H         1 <0>         0.1256
     66 H24         0.1145   -9.0538    0.6815 H         1 <0>         0.0938
     67 H25        -0.4893   -7.6138   -0.1731 H         1 <0>         0.0851
     68 H26        -2.3317   -8.8329    3.3772 H         1 <0>         0.0894
     69 H27        -1.1824   -9.9265    2.5702 H         1 <0>         0.0789
     70 H28         0.6711   -8.3646    3.0931 H         1 <0>         0.0690
     71 H29        -0.4781   -7.2709    3.9001 H         1 <0>         0.0818
     72 H30        -1.4954   -7.8814    6.0191 H         1 <0>         0.1267
     73 H31        -1.2777   -9.1783    8.0994 H         1 <0>         0.1271
     74 H32         0.2164  -11.1329    8.1827 H         1 <0>         0.1283
     75 H33         1.2651  -10.4963    4.0889 H         1 <0>         0.1257
     76 H34         2.0999  -12.0481    8.2055 H         1 <0>         0.0564
     77 H35         0.7559  -13.0967    7.6934 H         1 <0>         0.0575
     78 H36         2.4350  -13.5575    7.3238 H         1 <0>         0.1015
     79 H37        -2.1556   -6.7275   -0.4455 H         1 <0>         0.3922
     80 H38        -3.1252   -4.5668    1.2435 H         1 <0>         0.0854
     81 H39        -5.0429   -6.1044   -0.5663 H         1 <0>         0.0609
     82 H40        -5.0784   -6.0941    1.2132 H         1 <0>         0.0707
     83 H41        -6.7204   -4.4868    0.2810 H         1 <0>         0.0658
     84 H42        -5.4456   -3.6419    1.1917 H         1 <0>         0.0647
     85 H43        -5.5240   -4.0080   -1.8376 H         1 <0>         0.0624
     86 H44        -5.9024   -2.5042   -0.9636 H         1 <0>         0.0655
     87 H45        -3.5708   -2.4807   -1.8073 H         1 <0>         0.0673
     88 H46        -3.6064   -2.4704   -0.0278 H         1 <0>         0.0658
     89 H47        -1.9289   -4.0881   -0.8751 H         1 <0>         0.0646
     90 H48        -3.2036   -4.9329   -1.7859 H         1 <0>         0.0666
     91 H49         7.2881   -6.4462   -1.2019 H         1 <0>         0.4213
@<TRIPOS>BOND
     1    1    2 1
     2    1   45 1
     3    1   46 1
     4    1   47 1
     5    2    3 1
     6    2    9 1
     7    2    4 1
     8    4    5 1
     9    4   48 1
    10    4   49 1
    11    5    6 1
    12    5   11 1
    13    6    7 1
    14    6   50 1
    15    6   51 1
    16    7    8 1
    17    7    9 1
    18    7   10 1
    19    9   52 1
    20    9   91 1
    21   10   53 1
    22   10   54 1
    23   10   55 1
    24   11   12 1
    25   11   56 1
    26   11   57 1
    27   12   17 ar
    28   12   13 ar
    29   13   14 ar
    30   13   58 1
    31   14   15 ar
    32   14   59 1
    33   15   16 ar
    34   15   18 1
    35   16   17 ar
    36   16   60 1
    37   17   61 1
    38   18   23 ar
    39   18   19 ar
    40   19   20 ar
    41   19   62 1
    42   20   21 ar
    43   20   63 1
    44   21   22 ar
    45   21   64 1
    46   22   23 ar
    47   22   65 1
    48   23   24 1
    49   24   25 1
    50   24   66 1
    51   24   67 1
    52   25   26 1
    53   25   36 am
    54   26   27 1
    55   26   68 1
    56   26   69 1
    57   27   28 1
    58   27   70 1
    59   27   71 1
    60   28   33 ar
    61   28   29 ar
    62   29   30 ar
    63   29   72 1
    64   30   31 ar
    65   30   73 1
    66   31   32 ar
    67   31   74 1
    68   32   33 ar
    69   32   34 1
    70   33   75 1
    71   34   35 1
    72   35   76 1
    73   35   77 1
    74   35   78 1
    75   36   37 2
    76   36   38 am
    77   38   39 1
    78   38   79 1
    79   39   44 1
    80   39   40 1
    81   39   80 1
    82   40   41 1
    83   40   81 1
    84   40   82 1
    85   41   42 1
    86   41   83 1
    87   41   84 1
    88   42   43 1
    89   42   85 1
    90   42   86 1
    91   43   44 1
    92   43   87 1
    93   43   88 1
    94   44   89 1
    95   44   90 1
@<TRIPOS>MOLECULE
CHEMBL252240
   74    78     0     0     0
SMALL
USER_CHARGES

@<TRIPOS>ATOM
      1 C1         -0.5674    1.4922   -0.8173 C.3       1 <0>        -0.1912
      2 C2         -0.4024    0.0027   -0.5093 C.3       1 <0>         0.1375
      3 C3          0.3387   -0.1644    0.8188 C.3       1 <0>        -0.1862
      4 C4         -1.7811   -0.6533   -0.4100 C.3       1 <0>        -0.1416
      5 O1          0.3471   -0.6198   -1.5546 O.3       1 <0>        -0.3544
      6 C5          1.5917   -0.1557   -1.7741 C.2       1 <0>         0.6550
      7 O2          2.0296    0.7529   -1.0965 O.2       1 <0>        -0.5532
      8 N1          2.3520   -0.6991   -2.7453 N.am      1 <0>        -0.6964
      9 C6          3.7064   -0.1941   -2.9841 C.3       1 <0>         0.1458
     10 H1          4.1570    0.0996   -2.0361 H         1 <0>         0.1403
     11 C7          3.6419    1.0180   -3.9155 C.3       1 <0>        -0.1078
     12 C8          2.9128    2.1427   -3.2265 C.ar      1 <0>         0.0130
     13 C9          1.5574    2.3181   -3.4356 C.ar      1 <0>        -0.1249
     14 C10         0.8873    3.3492   -2.8044 C.ar      1 <0>        -0.0472
     15 C11         1.5719    4.2065   -1.9636 C.ar      1 <0>        -0.1555
     16 C12         2.9290    4.0318   -1.7534 C.ar      1 <0>         0.1605
     17 C13         3.5980    2.9947   -2.3816 C.ar      1 <0>        -0.2055
     18 C14         5.0741    2.7995   -2.1491 C.3       1 <0>         0.5129
     19 F1          5.7965    3.5348   -3.0950 F         1 <0>        -0.1731
     20 F2          5.4059    3.2401   -0.8634 F         1 <0>        -0.1662
     21 F3          5.3902    1.4423   -2.2729 F         1 <0>        -0.1763
     22 F4          3.5992    4.8694   -0.9322 F         1 <0>        -0.1234
     23 C15         4.5400   -1.2748   -3.6230 C.2       1 <0>         0.5226
     24 O3          4.0510   -2.3599   -3.8560 O.2       1 <0>        -0.5212
     25 N2          5.8290   -1.0354   -3.9356 N.am      1 <0>        -0.7141
     26 C16         6.6394   -2.0860   -4.5567 C.3       1 <0>         0.2033
     27 C17         8.0325   -1.5666   -4.8024 C.2       1 <0>         0.2763
     28 N3          8.3957   -0.8676   -5.8379 N.2       1 <0>        -0.4588
     29 C18         9.7149   -0.5661   -5.7406 C.ar      1 <0>        -0.0027
     30 C19        10.6088    0.1444   -6.5478 C.ar      1 <0>        -0.0143
     31 C20        11.9201    0.2561   -6.1270 C.ar      1 <0>        -0.1827
     32 C21        12.3073   -0.3315   -4.9327 C.ar      1 <0>         0.1438
     33 N4         11.4501   -0.9970   -4.1868 N.ar      1 <0>        -0.4766
     34 C22        10.1826   -1.1342   -4.5423 C.ar      1 <0>         0.2510
     35 N5          9.0932   -1.7552   -3.9704 N.pl3     1 <0>        -0.4355
     36 C23         9.0798   -2.4865   -2.7011 C.3       1 <0>         0.1179
     37 C24        10.2029   -3.4961   -2.4555 C.3       1 <0>        -0.1317
     38 C25         8.7847   -3.9869   -2.7532 C.3       1 <0>        -0.1655
     39 C26         8.5635   -1.7167   -1.5128 C.ar      1 <0>        -0.0588
     40 C27         7.8646   -2.3713   -0.5159 C.ar      1 <0>        -0.1081
     41 C28         7.3910   -1.6652    0.5741 C.ar      1 <0>        -0.1123
     42 C29         7.6167   -0.3046    0.6673 C.ar      1 <0>        -0.1090
     43 C30         8.3164    0.3498   -0.3292 C.ar      1 <0>        -0.1120
     44 C31         8.7937   -0.3571   -1.4171 C.ar      1 <0>        -0.0983
     45 H2          0.4148    1.9596   -0.8881 H         1 <0>         0.0949
     46 H3         -1.0954    1.6113   -1.7635 H         1 <0>         0.0587
     47 H4         -1.1391    1.9670   -0.0200 H         1 <0>         0.0684
     48 H5         -0.2330    0.3104    1.6162 H         1 <0>         0.0691
     49 H6          0.4562   -1.2256    1.0383 H         1 <0>         0.0585
     50 H7          1.3209    0.3029    0.7480 H         1 <0>         0.0882
     51 H8         -2.3091   -0.5343   -1.3561 H         1 <0>         0.0666
     52 H9         -1.6636   -1.7145   -0.1905 H         1 <0>         0.0665
     53 H10        -2.3528   -0.1785    0.3874 H         1 <0>         0.0803
     54 H11         2.0025   -1.4244   -3.2862 H         1 <0>         0.4158
     55 H12         4.6533    1.3393   -4.1642 H         1 <0>         0.0971
     56 H13         3.1119    0.7469   -4.8285 H         1 <0>         0.0994
     57 H14         1.0218    1.6492   -4.0930 H         1 <0>         0.1350
     58 H15        -0.1714    3.4852   -2.9685 H         1 <0>         0.1401
     59 H16         1.0483    5.0125   -1.4711 H         1 <0>         0.1455
     60 H17         6.2201   -0.1675   -3.7493 H         1 <0>         0.4071
     61 H18         6.6853   -2.9495   -3.8932 H         1 <0>         0.0964
     62 H19         6.1887   -2.3797   -5.5048 H         1 <0>         0.1114
     63 H20        10.2833    0.5932   -7.4747 H         1 <0>         0.1437
     64 H21        12.6387    0.7972   -6.7247 H         1 <0>         0.1469
     65 H22        13.3332   -0.2418   -4.6073 H         1 <0>         0.1678
     66 H23        10.9518   -3.6162   -3.2384 H         1 <0>         0.1098
     67 H24        10.5687   -3.6036   -1.4344 H         1 <0>         0.1154
     68 H25         8.2174   -4.4172   -1.9279 H         1 <0>         0.1196
     69 H26         8.6005   -4.4298   -3.7320 H         1 <0>         0.1087
     70 H27         7.6882   -3.4343   -0.5887 H         1 <0>         0.1262
     71 H28         6.8443   -2.1764    1.3526 H         1 <0>         0.1265
     72 H29         7.2461    0.2473    1.5185 H         1 <0>         0.1250
     73 H30         8.4925    1.4129   -0.2566 H         1 <0>         0.1228
     74 H31         9.3437    0.1535   -2.1938 H         1 <0>         0.1130
@<TRIPOS>BOND
     1    1    2 1
     2    1   45 1
     3    1   46 1
     4    1   47 1
     5    2    3 1
     6    2    4 1
     7    2    5 1
     8    3   48 1
     9    3   49 1
    10    3   50 1
    11    4   51 1
    12    4   52 1
    13    4   53 1
    14    5    6 1
    15    6    7 2
    16    6    8 am
    17    8    9 1
    18    8   54 1
    19    9   10 1
    20    9   11 1
    21    9   23 1
    22   11   12 1
    23   11   55 1
    24   11   56 1
    25   12   17 ar
    26   12   13 ar
    27   13   14 ar
    28   13   57 1
    29   14   15 ar
    30   14   58 1
    31   15   16 ar
    32   15   59 1
    33   16   17 ar
    34   16   22 1
    35   17   18 1
    36   18   19 1
    37   18   20 1
    38   18   21 1
    39   23   24 2
    40   23   25 am
    41   25   26 1
    42   25   60 1
    43   26   27 1
    44   26   61 1
    45   26   62 1
    46   27   35 1
    47   27   28 2
    48   28   29 1
    49   29   34 ar
    50   29   30 ar
    51   30   31 ar
    52   30   63 1
    53   31   32 ar
    54   31   64 1
    55   32   33 ar
    56   32   65 1
    57   33   34 ar
    58   34   35 1
    59   35   36 1
    60   36   38 1
    61   36   37 1
    62   36   39 1
    63   37   38 1
    64   37   66 1
    65   37   67 1
    66   38   68 1
    67   38   69 1
    68   39   44 ar
    69   39   40 ar
    70   40   41 ar
    71   40   70 1
    72   41   42 ar
    73   41   71 1
    74   42   43 ar
    75   42   72 1
    76   43   44 ar
    77   43   73 1
    78   44   74 1
@<TRIPOS>MOLECULE
CHEMBL254080
   68    73     0     0     0
SMALL
USER_CHARGES

@<TRIPOS>ATOM
      1 C1         -2.5650   -1.0052    1.9707 C.ar      1 <0>        -0.0101
      2 C2         -3.5106   -0.6988    2.9311 C.ar      1 <0>        -0.1344
      3 C3         -3.8314    0.6220    3.1891 C.ar      1 <0>         0.0229
      4 C4         -3.2053    1.6355    2.4855 C.ar      1 <0>        -0.1362
      5 C5         -2.2598    1.3279    1.5254 C.ar      1 <0>         0.0032
      6 C6         -1.9398    0.0079    1.2680 C.ar      1 <0>        -0.6695
      7 S1         -0.7340   -0.3835    0.0442 S.o2      1 <0>         2.6806
      8 O1         -0.0411    0.8233   -0.2437 O.2       1 <0>        -0.9575
      9 O2         -0.0679   -1.5565    0.4910 O.2       1 <0>        -0.9500
     10 N1         -1.5524   -0.7997   -1.3339 N.pl3     1 <0>        -0.9846
     11 C7         -2.4668    0.1529   -1.9782 C.3       1 <0>         0.1951
     12 H1         -2.0699    0.4386   -2.9523 H         1 <0>         0.0913
     13 C8         -3.8323   -0.5180   -2.1568 C.3       1 <0>        -0.1343
     14 C9         -3.6544   -1.8327   -2.9198 C.3       1 <0>        -0.1195
     15 C10        -2.7553   -2.7739   -2.1149 C.3       1 <0>        -0.1311
     16 C11        -1.3733   -2.1266   -1.9391 C.3       1 <0>         0.1984
     17 H2         -0.8890   -2.0230   -2.9101 H         1 <0>         0.0959
     18 C12        -0.5103   -2.9961   -1.0224 C.3       1 <0>        -0.1308
     19 C13        -0.9566   -4.4416   -0.7943 C.3       1 <0>        -0.1778
     20 C14        -1.1055   -3.4093    0.3251 C.3       1 <0>        -0.1267
     21 C15         0.9938   -2.7207   -1.0758 C.3       1 <0>         0.0136
     22 C16         1.6919   -3.5381   -0.0196 C.2       1 <0>         0.3575
     23 N2          2.1707   -4.7410   -0.1765 N.2       1 <0>        -0.5501
     24 C17         2.7240   -5.1674    0.9644 C.2       1 <0>         0.1866
     25 N3          2.6030   -4.2357    1.8658 N.2       1 <0>        -0.3179
     26 O3          1.9324   -3.1521    1.2398 O.3       1 <0>        -0.0414
     27 C18         3.3799   -6.5081    1.1725 C.3       1 <0>         0.0999
     28 N4          4.8096   -6.4091    0.8500 N.4       1 <0>        -0.3943
     29 C19         5.5045   -5.5661    1.8563 C.3       1 <0>        -0.0101
     30 C20         6.9836   -6.0097    1.7298 C.3       1 <0>        -0.1427
     31 C21         6.8683   -7.5311    1.4811 C.3       1 <0>        -0.1437
     32 C22         5.4447   -7.7423    0.9331 C.3       1 <0>        -0.0062
     33 C23        -2.6141    1.3968   -1.0996 C.3       1 <0>        -0.2389
     34 C24        -3.9920    1.6762   -0.4960 C.3       1 <0>        -0.1840
     35 C25        -3.4671    2.5463   -1.6398 C.3       1 <0>        -0.1489
     36 Cl1        -5.0194    1.0076    4.3948 Cl        1 <0>        -0.0474
     37 H3         -2.3113   -2.0361    1.7724 H         1 <0>         0.1474
     38 H4         -3.9993   -1.4904    3.4798 H         1 <0>         0.1430
     39 H5         -3.4555    2.6667    2.6862 H         1 <0>         0.1465
     40 H6         -1.7713    2.1189    0.9759 H         1 <0>         0.1520
     41 H7         -4.2685   -0.7212   -1.1787 H         1 <0>         0.0743
     42 H8         -4.4916    0.1429   -2.7195 H         1 <0>         0.0796
     43 H9         -4.6276   -2.3001   -3.0697 H         1 <0>         0.0719
     44 H10        -3.1954   -1.6315   -3.8877 H         1 <0>         0.0690
     45 H11        -3.2016   -2.9559   -1.1373 H         1 <0>         0.0722
     46 H12        -2.6480   -3.7187   -2.6479 H         1 <0>         0.0832
     47 H13        -1.8651   -4.7732   -1.2972 H         1 <0>         0.1095
     48 H14        -0.1787   -5.1968   -0.6823 H         1 <0>         0.0980
     49 H15        -0.4255   -3.4853    1.1736 H         1 <0>         0.1064
     50 H16        -2.1118   -3.0617    0.5586 H         1 <0>         0.0968
     51 H17         1.3783   -2.9926   -2.0588 H         1 <0>         0.1102
     52 H18         1.1758   -1.6614   -0.8947 H         1 <0>         0.1040
     53 H19         3.2623   -6.8127    2.2125 H         1 <0>         0.1568
     54 H20         2.9111   -7.2468    0.5223 H         1 <0>         0.1643
     55 H21         5.3976   -4.5091    1.6126 H         1 <0>         0.1300
     56 H22         5.1257   -5.7713    2.8576 H         1 <0>         0.1386
     57 H23         7.4634   -5.5160    0.8847 H         1 <0>         0.0989
     58 H24         7.5266   -5.8099    2.6536 H         1 <0>         0.1195
     59 H25         7.6076   -7.8516    0.7471 H         1 <0>         0.1081
     60 H26         6.9992   -8.0781    2.4148 H         1 <0>         0.1067
     61 H27         4.8777   -8.3822    1.6091 H         1 <0>         0.1354
     62 H28         5.4915   -8.1937   -0.0580 H         1 <0>         0.1383
     63 H29        -1.7404    1.6562   -0.5017 H         1 <0>         0.1345
     64 H30        -4.7935    0.9738   -0.7249 H         1 <0>         0.1069
     65 H31        -4.0250    2.1194    0.4993 H         1 <0>         0.1044
     66 H32        -3.1548    3.5620   -1.3970 H         1 <0>         0.1029
     67 H33        -3.9233    2.4164   -2.6212 H         1 <0>         0.1017
     68 H34         4.9324   -6.0222   -0.0738 H         1 <0>         0.4326
@<TRIPOS>BOND
     1    1    6 ar
     2    1    2 ar
     3    1   37 1
     4    2    3 ar
     5    2   38 1
     6    3    4 ar
     7    3   36 1
     8    4    5 ar
     9    4   39 1
    10    5    6 ar
    11    5   40 1
    12    6    7 1
    13    7    8 2
    14    7    9 2
    15    7   10 1
    16   10   16 1
    17   10   11 1
    18   11   12 1
    19   11   13 1
    20   11   33 1
    21   13   14 1
    22   13   41 1
    23   13   42 1
    24   14   15 1
    25   14   43 1
    26   14   44 1
    27   15   16 1
    28   15   45 1
    29   15   46 1
    30   16   17 1
    31   16   18 1
    32   18   20 1
    33   18   19 1
    34   18   21 1
    35   19   20 1
    36   19   47 1
    37   19   48 1
    38   20   49 1
    39   20   50 1
    40   21   22 1
    41   21   51 1
    42   21   52 1
    43   22   26 1
    44   22   23 2
    45   23   24 1
    46   24   25 2
    47   24   27 1
    48   25   26 1
    49   27   28 1
    50   27   53 1
    51   27   54 1
    52   28   32 1
    53   28   29 1
    54   28   68 1
    55   29   30 1
    56   29   55 1
    57   29   56 1
    58   30   31 1
    59   30   57 1
    60   30   58 1
    61   31   32 1
    62   31   59 1
    63   31   60 1
    64   32   61 1
    65   32   62 1
    66   33   35 1
    67   33   34 1
    68   33   63 1
    69   34   35 1
    70   34   64 1
    71   34   65 1
    72   35   66 1
    73   35   67 1
@<TRIPOS>MOLECULE
CHEMBL1096789
   66    68     0     0     0
SMALL
USER_CHARGES

@<TRIPOS>ATOM
      1 C1         -0.1982    1.2689    0.2490 C.3       1 <0>        -0.1535
      2 C2         -0.2537   -0.2528    0.1006 C.3       1 <0>         0.0588
      3 O1          0.5530   -0.6529   -1.0091 O.3       1 <0>        -0.3493
      4 C3          0.6124   -1.9668   -1.2770 C.2       1 <0>         0.4583
      5 O2         -0.0003   -2.7513   -0.5921 O.2       1 <0>        -0.4873
      6 C4          1.4432   -2.4636   -2.4320 C.3       1 <0>         0.1469
      7 H1          2.4504   -2.0536   -2.3579 H         1 <0>         0.1148
      8 C5          0.8058   -2.0152   -3.7487 C.3       1 <0>        -0.1755
      9 N1          1.5073   -3.9266   -2.3938 N.pl3     1 <0>        -1.1684
     10 P1          2.8721   -4.7003   -2.8717 P.3       1 <0>         2.6128
     11 O3          2.7277   -6.1526   -2.6260 O.2       1 <0>        -1.0177
     12 C6          3.1445   -4.4092   -4.6506 C.3       1 <0>        -0.5964
     13 O4          4.2631   -5.1802   -5.0936 O.3       1 <0>        -0.2691
     14 C7          4.0595   -6.5105   -5.2823 C.ar      1 <0>         0.1386
     15 C8          2.7887   -7.0455   -5.1499 C.ar      1 <0>        -0.1534
     16 C9          2.5794   -8.3983   -5.3418 C.ar      1 <0>        -0.0283
     17 C10         3.6395   -9.2275   -5.6678 C.ar      1 <0>        -0.0935
     18 C11         4.9071   -8.7044   -5.8017 C.ar      1 <0>        -0.0506
     19 C12         5.1319   -7.3453   -5.6169 C.ar      1 <0>        -0.0553
     20 C13         6.5801   -7.0336   -5.8246 C.2       1 <0>         0.0993
     21 C14         7.2195   -8.2006   -6.1377 C.2       1 <0>        -0.2423
     22 S1          8.8989   -7.6730   -6.3504 S.3       1 <0>         0.1624
     23 C15         8.6640   -6.0370   -6.0305 C.2       1 <0>         0.0325
     24 N2          7.3859   -5.9574   -5.7870 N.2       1 <0>        -0.4995
     25 C16         6.2403   -9.3276   -6.1408 C.3       1 <0>         0.0161
     26 C17         3.4068  -10.7018   -5.8757 C.3       1 <0>        -0.1127
     27 C18         1.1938   -8.9725   -5.1954 C.3       1 <0>        -0.1183
     28 N3          4.1519   -4.1267   -2.0216 N.pl3     1 <0>        -1.1693
     29 C19         4.1724   -4.2423   -0.5613 C.3       1 <0>         0.1749
     30 H2          3.1504   -4.3032   -0.1873 H         1 <0>         0.1172
     31 C20         4.9382   -5.5047   -0.1604 C.3       1 <0>        -0.1692
     32 C21         4.8521   -3.0337    0.0288 C.2       1 <0>         0.4539
     33 O5          5.2760   -2.1649   -0.6961 O.2       1 <0>        -0.5000
     34 O6          4.9867   -2.9224    1.3597 O.3       1 <0>        -0.3467
     35 C22         5.6412   -1.7504    1.8497 C.3       1 <0>         0.0587
     36 C23         5.7005   -1.8006    3.3778 C.3       1 <0>        -0.1531
     37 H3          0.8326    1.5802    0.4183 H         1 <0>         0.0675
     38 H4         -0.5743    1.7367   -0.6609 H         1 <0>         0.0682
     39 H5         -0.8136    1.5741    1.0954 H         1 <0>         0.0828
     40 H6          0.1224   -0.7206    1.0105 H         1 <0>         0.0703
     41 H7         -1.2845   -0.5641   -0.0687 H         1 <0>         0.0713
     42 H8          0.8377   -0.9278   -3.8161 H         1 <0>         0.0884
     43 H9          1.3561   -2.4473   -4.5845 H         1 <0>         0.0701
     44 H10        -0.2306   -2.3511   -3.7836 H         1 <0>         0.0784
     45 H11         0.7426   -4.4378   -2.0859 H         1 <0>         0.4288
     46 H12         2.2556   -4.7053   -5.2075 H         1 <0>         0.1078
     47 H13         3.3431   -3.3508   -4.8193 H         1 <0>         0.1210
     48 H14         1.9584   -6.4034   -4.8955 H         1 <0>         0.1231
     49 H15         9.3967   -5.2435   -6.0273 H         1 <0>         0.2221
     50 H16         6.5086  -10.0744   -5.3935 H         1 <0>         0.1128
     51 H17         6.2038   -9.7807   -7.1315 H         1 <0>         0.1092
     52 H18         3.1754  -10.8889   -6.9243 H         1 <0>         0.0700
     53 H19         4.3044  -11.2541   -5.5976 H         1 <0>         0.0661
     54 H20         2.5722  -11.0289   -5.2555 H         1 <0>         0.0736
     55 H21         0.7223   -9.0383   -6.1760 H         1 <0>         0.0715
     56 H22         1.2575   -9.9676   -4.7553 H         1 <0>         0.0771
     57 H23         0.5993   -8.3267   -4.5491 H         1 <0>         0.0726
     58 H24         4.8952   -3.7108   -2.4857 H         1 <0>         0.4142
     59 H25         4.9535   -5.5907    0.9261 H         1 <0>         0.0788
     60 H26         4.4466   -6.3789   -0.5872 H         1 <0>         0.0985
     61 H27         5.9602   -5.4438   -0.5344 H         1 <0>         0.0652
     62 H28         6.6535   -1.7048    1.4482 H         1 <0>         0.0695
     63 H29         5.0859   -0.8663    1.5366 H         1 <0>         0.0677
     64 H30         4.6882   -1.8463    3.7794 H         1 <0>         0.0677
     65 H31         6.2558   -2.6848    3.6910 H         1 <0>         0.0690
     66 H32         6.1998   -0.9067    3.7516 H         1 <0>         0.0811
@<TRIPOS>BOND
     1    1    2 1
     2    1   37 1
     3    1   38 1
     4    1   39 1
     5    2    3 1
     6    2   40 1
     7    2   41 1
     8    3    4 1
     9    4    5 2
    10    4    6 1
    11    6    7 1
    12    6    8 1
    13    6    9 1
    14    8   42 1
    15    8   43 1
    16    8   44 1
    17    9   10 1
    18    9   45 1
    19   10   11 2
    20   10   12 1
    21   10   28 1
    22   12   13 1
    23   12   46 1
    24   12   47 1
    25   13   14 1
    26   14   19 ar
    27   14   15 ar
    28   15   16 ar
    29   15   48 1
    30   16   17 ar
    31   16   27 1
    32   17   18 ar
    33   17   26 1
    34   18   25 1
    35   18   19 ar
    36   19   20 1
    37   20   24 1
    38   20   21 2
    39   21   22 1
    40   21   25 1
    41   22   23 1
    42   23   24 2
    43   23   49 1
    44   25   50 1
    45   25   51 1
    46   26   52 1
    47   26   53 1
    48   26   54 1
    49   27   55 1
    50   27   56 1
    51   27   57 1
    52   28   29 1
    53   28   58 1
    54   29   30 1
    55   29   31 1
    56   29   32 1
    57   31   59 1
    58   31   60 1
    59   31   61 1
    60   32   33 2
    61   32   34 1
    62   34   35 1
    63   35   36 1
    64   35   62 1
    65   35   63 1
    66   36   64 1
    67   36   65 1
    68   36   66 1
@<TRIPOS>MOLECULE
CHEMBL596072
   60    65     0     0     0
SMALL
USER_CHARGES

@<TRIPOS>ATOM
      1 C1         -0.0184    1.5028    0.0103 C.3       1 <0>        -0.0794
      2 C2          0.0021   -0.0041    0.0020 C.2       1 <0>         0.1153
      3 C3          0.0084   -0.8590   -1.1805 C.ar      1 <0>        -0.2249
      4 C4         -0.0015   -0.6158   -2.5576 C.ar      1 <0>         0.0278
      5 C5          0.0091   -1.7129   -3.4141 C.ar      1 <0>        -0.1649
      6 C6          0.0291   -3.0030   -2.8719 C.ar      1 <0>         0.2042
      7 N1          0.0380   -3.1995   -1.5738 N.ar      1 <0>        -0.4939
      8 C7          0.0285   -2.1884   -0.7124 C.ar      1 <0>         0.3277
      9 N2          0.0337   -2.1197    0.6546 N.pl3     1 <0>        -0.4867
     10 H1          0.0473   -2.8814    1.2551 H         1 <0>         0.4495
     11 N3          0.0230   -0.7783    1.0488 N.2       1 <0>        -0.2274
     12 C8         -0.0011   -1.5170   -4.8838 C.ar      1 <0>        -0.0308
     13 C9         -0.9323   -0.6662   -5.4794 C.ar      1 <0>        -0.0826
     14 C10        -0.9006   -0.5159   -6.8605 C.ar      1 <0>         0.0604
     15 C11         0.0477   -1.2101   -7.5999 C.ar      1 <0>         0.0356
     16 N4          0.9164   -2.0084   -7.0135 N.ar      1 <0>        -0.4310
     17 C12         0.9302   -2.1804   -5.6988 C.ar      1 <0>         0.2025
     18 C13         1.9315   -3.0843   -5.0858 C.2       1 <0>        -0.1595
     19 C14         2.4717   -4.3245   -5.6555 C.2       1 <0>        -0.1827
     20 C15         3.3434   -4.7993   -4.7504 C.2       1 <0>        -0.0285
     21 O1          3.3778   -3.9676   -3.6982 O.3       1 <0>        -0.1702
     22 C16         2.5446   -2.9337   -3.8819 C.2       1 <0>         0.0090
     23 O2         -1.7900    0.3030   -7.4820 O.3       1 <0>        -0.3215
     24 C17        -1.6939    0.4050   -8.9041 C.3       1 <0>         0.0258
     25 C18        -2.7684    1.3641   -9.4204 C.3       1 <0>         0.0434
     26 H2         -3.7474    1.0337   -9.0735 H         1 <0>         0.1530
     27 C19        -2.7472    1.3780  -10.9502 C.3       1 <0>        -0.0555
     28 C20        -3.8834    2.2263  -11.4606 C.2       1 <0>        -0.2377
     29 C21        -5.0991    1.7938  -11.8307 C.2       1 <0>         0.1041
     30 N5         -5.8660    2.8509  -12.2390 N.pl3     1 <0>        -0.5846
     31 H3         -6.7819    2.7868  -12.5521 H         1 <0>         0.4265
     32 C22        -5.1442    4.0192  -12.1390 C.ar      1 <0>         0.0988
     33 C23        -3.8727    3.6800  -11.6411 C.ar      1 <0>        -0.1171
     34 C24        -2.9188    4.6770  -11.4295 C.ar      1 <0>        -0.1141
     35 C25        -3.2268    5.9798  -11.7042 C.ar      1 <0>        -0.1190
     36 C26        -4.4809    6.3201  -12.1916 C.ar      1 <0>        -0.0932
     37 C27        -5.4342    5.3508  -12.4165 C.ar      1 <0>        -0.1110
     38 N6         -2.5008    2.7172   -8.9147 N.4       1 <0>        -0.6363
     39 H4          1.0042    1.8801    0.0026 H         1 <0>         0.0891
     40 H5         -0.5455    1.8639   -0.8728 H         1 <0>         0.0825
     41 H6         -0.5286    1.8543    0.9071 H         1 <0>         0.0863
     42 H7         -0.0173    0.3923   -2.9446 H         1 <0>         0.1438
     43 H8          0.0370   -3.8551   -3.5355 H         1 <0>         0.1676
     44 H9         -1.6602   -0.1375   -4.8818 H         1 <0>         0.1497
     45 H10         0.0733   -1.0942   -8.6733 H         1 <0>         0.1607
     46 H11         2.2193   -4.7659   -6.6083 H         1 <0>         0.1572
     47 H12         3.9228   -5.7050   -4.8529 H         1 <0>         0.2093
     48 H13         2.3857   -2.1200   -3.1898 H         1 <0>         0.1981
     49 H14        -0.7084    0.7834   -9.1755 H         1 <0>         0.0922
     50 H15        -1.8407   -0.5789   -9.3497 H         1 <0>         0.1140
     51 H16        -1.8004    1.7921  -11.2967 H         1 <0>         0.0999
     52 H17        -2.8572    0.3601  -11.3243 H         1 <0>         0.1218
     53 H18        -5.4237    0.7640  -11.8097 H         1 <0>         0.1791
     54 H19        -1.9411    4.4197  -11.0498 H         1 <0>         0.1149
     55 H20        -2.4884    6.7508  -11.5404 H         1 <0>         0.1312
     56 H21        -4.7096    7.3541  -12.4033 H         1 <0>         0.1352
     57 H22        -6.4077    5.6259  -12.7949 H         1 <0>         0.1294
     58 H23        -3.2093    3.3497   -9.2552 H         1 <0>         0.4381
     59 H24        -2.5147    2.7080   -7.9059 H         1 <0>         0.4392
     60 H25        -1.5945    3.0231   -9.2358 H         1 <0>         0.4299
@<TRIPOS>BOND
     1    1    2 1
     2    1   39 1
     3    1   40 1
     4    1   41 1
     5    2   11 2
     6    2    3 1
     7    3    8 ar
     8    3    4 ar
     9    4    5 ar
    10    4   42 1
    11    5    6 ar
    12    5   12 1
    13    6    7 ar
    14    6   43 1
    15    7    8 ar
    16    8    9 1
    17    9   10 1
    18    9   11 1
    19   12   17 ar
    20   12   13 ar
    21   13   14 ar
    22   13   44 1
    23   14   15 ar
    24   14   23 1
    25   15   16 ar
    26   15   45 1
    27   16   17 ar
    28   17   18 1
    29   18   22 2
    30   18   19 1
    31   19   20 2
    32   19   46 1
    33   20   21 1
    34   20   47 1
    35   21   22 1
    36   22   48 1
    37   23   24 1
    38   24   25 1
    39   24   49 1
    40   24   50 1
    41   25   26 1
    42   25   27 1
    43   25   38 1
    44   27   28 1
    45   27   51 1
    46   27   52 1
    47   28   33 1
    48   28   29 2
    49   29   30 1
    50   29   53 1
    51   30   31 1
    52   30   32 1
    53   32   37 ar
    54   32   33 ar
    55   33   34 ar
    56   34   35 ar
    57   34   54 1
    58   35   36 ar
    59   35   55 1
    60   36   37 ar
    61   36   56 1
    62   37   57 1
    63   38   58 1
    64   38   59 1
    65   38   60 1
@<TRIPOS>MOLECULE
CHEMBL180805
   60    62     0     0     0
SMALL
USER_CHARGES

@<TRIPOS>ATOM
      1 C1          0.5905    0.9095   -0.1600 C.3       1 <0>        -0.2229
      2 C2          0.1016   -0.5227    0.0652 C.3       1 <0>         0.0154
      3 C3         -1.4266   -0.5342    0.1385 C.3       1 <0>         0.1712
      4 C4         -1.9967   -0.1327   -1.1974 C.ar      1 <0>        -0.1708
      5 C5         -1.8569    1.1828   -1.6359 C.ar      1 <0>        -0.1341
      6 C6         -2.3600    1.5781   -2.8371 C.ar      1 <0>        -0.0802
      7 C7         -3.0308    0.6481   -3.6502 C.ar      1 <0>         0.0100
      8 C8         -3.5624    1.0199   -4.8960 C.ar      1 <0>        -0.1685
      9 C9         -4.2076    0.0893   -5.6595 C.ar      1 <0>         0.1724
     10 C10        -4.3467   -1.2301   -5.2172 C.ar      1 <0>        -0.1754
     11 C11        -3.8436   -1.6214   -4.0160 C.ar      1 <0>        -0.0607
     12 C12        -3.1725   -0.6899   -3.2043 C.ar      1 <0>        -0.0939
     13 C13        -2.6355   -1.0616   -1.9601 C.ar      1 <0>        -0.0286
     14 O1         -4.7215    0.4502   -6.8645 O.3       1 <0>        -0.2978
     15 C14        -5.3853   -0.5668   -7.6176 C.3       1 <0>         0.0636
     16 C15        -5.8931    0.0233   -8.9347 C.3       1 <0>        -0.0656
     17 C16        -4.7105    0.5648   -9.7405 C.3       1 <0>        -0.1442
     18 C17        -6.6037   -1.0656   -9.7411 C.3       1 <0>        -0.1458
     19 C18        -6.8728    1.1609   -8.6398 C.3       1 <0>        -0.1442
     20 N1         -1.8734    0.4115    1.1643 N.pl3     1 <0>        -0.4279
     21 C19        -1.7175    1.7711    1.1387 C.2       1 <0>         0.0055
     22 C20        -2.2705    2.2481    2.2702 C.2       1 <0>         0.0266
     23 N2         -2.7511    1.2081    2.9676 N.pl3     1 <0>        -0.4626
     24 C21        -2.5214    0.1052    2.3089 C.cat     1 <0>         0.2804
     25 N3          0.6562   -1.0371    1.3244 N.4       1 <0>        -0.3920
     26 C22         0.1867   -2.4122    1.5406 C.3       1 <0>        -0.0630
     27 C23         2.1235   -1.0260    1.2540 C.3       1 <0>        -0.0554
     28 H1          1.6791    0.9340   -0.1095 H         1 <0>         0.1062
     29 H2          0.2645    1.2547   -1.1412 H         1 <0>         0.1299
     30 H3          0.1763    1.5602    0.6102 H         1 <0>         0.0875
     31 H4          0.4304   -1.1530   -0.7610 H         1 <0>         0.1773
     32 H5         -1.7705   -1.5366    0.3939 H         1 <0>         0.1516
     33 H6         -1.3420    1.8993   -1.0131 H         1 <0>         0.1256
     34 H7         -2.2448    2.6010   -3.1637 H         1 <0>         0.1423
     35 H8         -3.4619    2.0360   -5.2479 H         1 <0>         0.1456
     36 H9         -4.8613   -1.9484   -5.8382 H         1 <0>         0.1429
     37 H10        -3.9590   -2.6435   -3.6868 H         1 <0>         0.1403
     38 H11        -2.7326   -2.0783   -1.6090 H         1 <0>         0.1358
     39 H12        -4.6873   -1.3772   -7.8278 H         1 <0>         0.0688
     40 H13        -6.2277   -0.9526   -7.0436 H         1 <0>         0.0685
     41 H14        -4.0125   -0.2456   -9.9506 H         1 <0>         0.0554
     42 H15        -5.0723    0.9853  -10.6788 H         1 <0>         0.0637
     43 H16        -4.2042    1.3406   -9.1660 H         1 <0>         0.0617
     44 H17        -7.4462   -1.4514   -9.1671 H         1 <0>         0.0598
     45 H18        -6.9655   -0.6452  -10.6794 H         1 <0>         0.0719
     46 H19        -5.9057   -1.8760   -9.9512 H         1 <0>         0.0600
     47 H20        -6.3665    1.9366   -8.0653 H         1 <0>         0.0617
     48 H21        -7.2346    1.5813   -9.5781 H         1 <0>         0.0637
     49 H22        -7.7153    0.7751   -8.0657 H         1 <0>         0.0551
     50 H23        -1.2419    2.3501    0.3609 H         1 <0>         0.2353
     51 H24        -2.3187    3.2861    2.5644 H         1 <0>         0.2332
     52 H25        -2.8007   -0.8882    2.6276 H         1 <0>         0.2653
     53 H26         0.5156   -3.0425    0.7144 H         1 <0>         0.1380
     54 H27         0.5983   -2.7939    2.4750 H         1 <0>         0.1393
     55 H28        -0.9020   -2.4204    1.5929 H         1 <0>         0.1154
     56 H29         2.4523   -1.6563    0.4278 H         1 <0>         0.1332
     57 H30         2.4718   -0.0057    1.0935 H         1 <0>         0.1310
     58 H31         2.5350   -1.4077    2.1883 H         1 <0>         0.1346
     59 H32         0.3518   -0.4536    2.0892 H         1 <0>         0.4147
     60 H33        -3.2017    1.2668    3.8246 H         1 <0>         0.4731
@<TRIPOS>BOND
     1    1    2 1
     2    1   28 1
     3    1   29 1
     4    1   30 1
     5    2    3 1
     6    2   25 1
     7    2   31 1
     8    3    4 1
     9    3   20 1
    10    3   32 1
    11    4   13 ar
    12    4    5 ar
    13    5    6 ar
    14    5   33 1
    15    6    7 ar
    16    6   34 1
    17    7   12 ar
    18    7    8 ar
    19    8    9 ar
    20    8   35 1
    21    9   10 ar
    22    9   14 1
    23   10   11 ar
    24   10   36 1
    25   11   12 ar
    26   11   37 1
    27   12   13 ar
    28   13   38 1
    29   14   15 1
    30   15   16 1
    31   15   39 1
    32   15   40 1
    33   16   17 1
    34   16   18 1
    35   16   19 1
    36   17   41 1
    37   17   42 1
    38   17   43 1
    39   18   44 1
    40   18   45 1
    41   18   46 1
    42   19   47 1
    43   19   48 1
    44   19   49 1
    45   20   24 1
    46   20   21 1
    47   21   22 2
    48   21   50 1
    49   22   23 1
    50   22   51 1
    51   23   24 2
    52   23   60 1
    53   24   52 1
    54   25   26 1
    55   25   27 1
    56   25   59 1
    57   26   53 1
    58   26   54 1
    59   26   55 1
    60   27   56 1
    61   27   57 1
    62   27   58 1
@<TRIPOS>MOLECULE
CHEMBL180805
   59    61     0     0     0
SMALL
USER_CHARGES

@<TRIPOS>ATOM
      1 C1         -0.4320    0.9022   -0.4437 C.3       1 <0>        -0.2217
      2 C2          0.0256   -0.5209   -0.1175 C.3       1 <0>         0.0182
      3 C3          0.8475   -0.5091    1.1729 C.3       1 <0>         0.1722
      4 C4         -0.0363   -0.1141    2.3278 C.ar      1 <0>        -0.1387
      5 C5         -0.5158    1.1919    2.4099 C.ar      1 <0>        -0.1207
      6 C6         -1.3159    1.5811    3.4396 C.ar      1 <0>        -0.0922
      7 C7         -1.6664    0.6543    4.4368 C.ar      1 <0>         0.0033
      8 C8         -2.4905    1.0200    5.5138 C.ar      1 <0>        -0.1627
      9 C9         -2.8106    0.0927    6.4640 C.ar      1 <0>         0.1563
     10 C10        -2.3281   -1.2172    6.3795 C.ar      1 <0>        -0.1814
     11 C11        -1.5280   -1.6023    5.3497 C.ar      1 <0>        -0.0625
     12 C12        -1.1790   -0.6741    4.3530 C.ar      1 <0>        -0.0886
     13 C13        -0.3589   -1.0398    3.2721 C.ar      1 <0>        -0.0506
     14 O1         -3.6080    0.4477    7.5055 O.3       1 <0>        -0.3027
     15 C14        -3.9079   -0.5654    8.4676 C.3       1 <0>         0.0655
     16 C15        -4.8107    0.0171    9.5570 C.3       1 <0>        -0.0659
     17 C16        -6.1099    0.5222    8.9264 C.3       1 <0>        -0.1429
     18 C17        -5.1318   -1.0676   10.5871 C.3       1 <0>        -0.1445
     19 C18        -4.0930    1.1790   10.2467 C.3       1 <0>        -0.1434
     20 N1          1.9436    0.4545    1.0450 N.pl3     1 <0>        -0.4766
     21 C19         3.2814    0.1654    1.0281 C.2       1 <0>        -0.0726
     22 C20         3.9316    1.3371    0.8944 C.2       1 <0>        -0.0034
     23 N2          3.0158    2.3150    0.8314 N.2       1 <0>        -0.4732
     24 C21         1.8226    1.7933    0.9159 C.2       1 <0>         0.1734
     25 N3          0.8509   -1.0344   -1.2190 N.4       1 <0>        -0.3878
     26 C22         1.2903   -2.4007   -0.9058 C.3       1 <0>        -0.0560
     27 C23         0.0618   -1.0457   -2.4580 C.3       1 <0>        -0.0520
     28 H1          0.4338    1.5634   -0.4783 H         1 <0>         0.0975
     29 H2         -0.9338    0.9097   -1.4113 H         1 <0>         0.0945
     30 H3         -1.1222    1.2473    0.3262 H         1 <0>         0.1214
     31 H4         -0.8461   -1.1620    0.0128 H         1 <0>         0.1588
     32 H5          1.2569   -1.5033    1.3521 H         1 <0>         0.1279
     33 H6         -0.2480    1.9059    1.6451 H         1 <0>         0.1307
     34 H7         -1.6795    2.5968    3.4906 H         1 <0>         0.1384
     35 H8         -2.8686    2.0287    5.5902 H         1 <0>         0.1413
     36 H9         -2.5945   -1.9329    7.1432 H         1 <0>         0.1370
     37 H10        -1.1621   -2.6171    5.2975 H         1 <0>         0.1359
     38 H11         0.0168   -2.0492    3.1931 H         1 <0>         0.1310
     39 H12        -4.4191   -1.3932    7.9763 H         1 <0>         0.0656
     40 H13        -2.9823   -0.9253    8.9169 H         1 <0>         0.0657
     41 H14        -6.6212   -0.3056    8.4351 H         1 <0>         0.0544
     42 H15        -6.7531    0.9372    9.7025 H         1 <0>         0.0610
     43 H16        -5.8812    1.2950    8.1925 H         1 <0>         0.0628
     44 H17        -4.2061   -1.4275   11.0363 H         1 <0>         0.0592
     45 H18        -5.7749   -0.6527   11.3632 H         1 <0>         0.0694
     46 H19        -5.6430   -1.8955   10.0957 H         1 <0>         0.0590
     47 H20        -3.8643    1.9518    9.5128 H         1 <0>         0.0629
     48 H21        -4.7362    1.5940   11.0228 H         1 <0>         0.0610
     49 H22        -3.1674    0.8191   10.6959 H         1 <0>         0.0548
     50 H23         3.7294   -0.8141    1.1071 H         1 <0>         0.1816
     51 H24         5.0028    1.4667    0.8463 H         1 <0>         0.1787
     52 H25         0.8925    2.3416    0.8897 H         1 <0>         0.2156
     53 H26         0.4185   -3.0419   -0.7755 H         1 <0>         0.1281
     54 H27         1.9026   -2.7817   -1.7231 H         1 <0>         0.1312
     55 H28         1.8758   -2.3923    0.0135 H         1 <0>         0.1189
     56 H29        -0.2643   -0.0319   -2.6904 H         1 <0>         0.1275
     57 H30         0.6741   -1.4267   -3.2753 H         1 <0>         0.1281
     58 H31        -0.8100   -1.6869   -2.3277 H         1 <0>         0.1258
     59 H32         1.6579   -0.4409   -1.3396 H         1 <0>         0.4256
@<TRIPOS>BOND
     1    1    2 1
     2    1   28 1
     3    1   29 1
     4    1   30 1
     5    2    3 1
     6    2   25 1
     7    2   31 1
     8    3    4 1
     9    3   20 1
    10    3   32 1
    11    4   13 ar
    12    4    5 ar
    13    5    6 ar
    14    5   33 1
    15    6    7 ar
    16    6   34 1
    17    7   12 ar
    18    7    8 ar
    19    8    9 ar
    20    8   35 1
    21    9   10 ar
    22    9   14 1
    23   10   11 ar
    24   10   36 1
    25   11   12 ar
    26   11   37 1
    27   12   13 ar
    28   13   38 1
    29   14   15 1
    30   15   16 1
    31   15   39 1
    32   15   40 1
    33   16   17 1
    34   16   18 1
    35   16   19 1
    36   17   41 1
    37   17   42 1
    38   17   43 1
    39   18   44 1
    40   18   45 1
    41   18   46 1
    42   19   47 1
    43   19   48 1
    44   19   49 1
    45   20   24 1
    46   20   21 1
    47   21   22 2
    48   21   50 1
    49   22   23 1
    50   22   51 1
    51   23   24 2
    52   24   52 1
    53   25   26 1
    54   25   27 1
    55   25   59 1
    56   26   53 1
    57   26   54 1
    58   26   55 1
    59   27   56 1
    60   27   57 1
    61   27   58 1
@<TRIPOS>MOLECULE
CHEMBL180805
   60    62     0     0     0
SMALL
USER_CHARGES

@<TRIPOS>ATOM
      1 C1         -0.3099    1.5118   -0.1336 C.3       1 <0>        -0.1836
      2 C2         -0.0069    0.0227   -0.3119 C.3       1 <0>         0.0148
      3 C3         -1.3172   -0.7672   -0.3177 C.3       1 <0>         0.1703
      4 C4         -2.1428   -0.3620   -1.5115 C.ar      1 <0>        -0.1725
      5 C5         -1.6308   -0.5465   -2.7946 C.ar      1 <0>        -0.1190
      6 C6         -2.3504   -0.1914   -3.8938 C.ar      1 <0>        -0.0819
      7 C7         -3.6297    0.3697   -3.7362 C.ar      1 <0>         0.0111
      8 C8         -4.4011    0.7476   -4.8474 C.ar      1 <0>        -0.1692
      9 C9         -5.6401    1.2894   -4.6562 C.ar      1 <0>         0.1726
     10 C10        -6.1516    1.4736   -3.3677 C.ar      1 <0>        -0.1759
     11 C11        -5.4293    1.1185   -2.2716 C.ar      1 <0>        -0.0605
     12 C12        -4.1504    0.5570   -2.4312 C.ar      1 <0>        -0.0951
     13 C13        -3.3794    0.1735   -1.3207 C.ar      1 <0>        -0.0285
     14 O1         -6.3856    1.6546   -5.7321 O.3       1 <0>        -0.2979
     15 C14        -7.6732    2.2155   -5.4689 C.3       1 <0>         0.0637
     16 C15        -8.3586    2.5623   -6.7921 C.3       1 <0>        -0.0656
     17 C16        -8.5171    1.2934   -7.6322 C.3       1 <0>        -0.1442
     18 C17        -9.7373    3.1629   -6.5103 C.3       1 <0>        -0.1458
     19 C18        -7.5068    3.5773   -7.5570 C.3       1 <0>        -0.1442
     20 N1         -1.0230   -2.2005   -0.3912 N.pl3     1 <0>        -0.4342
     21 C19        -0.2036   -2.8160   -1.2986 C.2       1 <0>        -0.0022
     22 C20        -0.2170   -4.1306   -1.0068 C.2       1 <0>         0.0329
     23 N2         -1.0226   -4.3129    0.0500 N.pl3     1 <0>        -0.4662
     24 C21        -1.5050   -3.1605    0.4273 C.cat     1 <0>         0.2947
     25 N3          0.8394   -0.4408    0.7957 N.4       1 <0>        -0.3914
     26 C22         2.1359    0.2478    0.7427 C.3       1 <0>        -0.0548
     27 C23         0.1791   -0.1439    2.0739 C.3       1 <0>        -0.0671
     28 H1          0.6236    2.0745   -0.1295 H         1 <0>         0.1027
     29 H2         -0.9379    1.8557   -0.9554 H         1 <0>         0.1199
     30 H3         -0.8313    1.6659    0.8112 H         1 <0>         0.0932
     31 H4          0.5144   -0.1314   -1.2566 H         1 <0>         0.1553
     32 H5         -1.8724   -0.5567    0.5964 H         1 <0>         0.1515
     33 H6         -0.6483   -0.9775   -2.9184 H         1 <0>         0.1171
     34 H7         -1.9407   -0.3396   -4.8820 H         1 <0>         0.1410
     35 H8         -4.0166    0.6108   -5.8473 H         1 <0>         0.1453
     36 H9         -7.1338    1.9044   -3.2414 H         1 <0>         0.1427
     37 H10        -5.8366    1.2672   -1.2824 H         1 <0>         0.1402
     38 H11        -3.7646    0.3068   -0.3206 H         1 <0>         0.1353
     39 H12        -8.2801    1.4924   -4.9239 H         1 <0>         0.0684
     40 H13        -7.5603    3.1194   -4.8703 H         1 <0>         0.0689
     41 H14        -9.1239    0.5703   -7.0873 H         1 <0>         0.0551
     42 H15        -9.0054    1.5405   -8.5749 H         1 <0>         0.0637
     43 H16        -7.5349    0.8656   -7.8330 H         1 <0>         0.0616
     44 H17        -9.6244    4.0668   -5.9117 H         1 <0>         0.0601
     45 H18       -10.2256    3.4099   -7.4530 H         1 <0>         0.0719
     46 H19       -10.3441    2.4398   -5.9654 H         1 <0>         0.0598
     47 H20        -6.5246    3.1494   -7.7577 H         1 <0>         0.0618
     48 H21        -7.9951    3.8244   -8.4997 H         1 <0>         0.0637
     49 H22        -7.3939    4.4813   -6.9584 H         1 <0>         0.0554
     50 H23         0.3474   -2.3390   -2.0957 H         1 <0>         0.2262
     51 H24         0.3258   -4.9028   -1.5317 H         1 <0>         0.2328
     52 H25        -2.1799   -3.0012    1.2552 H         1 <0>         0.2663
     53 H26         1.9814    1.3218    0.8474 H         1 <0>         0.1344
     54 H27         2.7702   -0.1088    1.5543 H         1 <0>         0.1347
     55 H28         2.6181    0.0416   -0.2128 H         1 <0>         0.1295
     56 H29         0.0232    0.9313    2.1612 H         1 <0>         0.1405
     57 H30        -0.7829   -0.6549    2.1133 H         1 <0>         0.1149
     58 H31         0.8071   -0.4879    2.8958 H         1 <0>         0.1379
     59 H32         0.9837   -1.4362    0.7149 H         1 <0>         0.4146
     60 H33        -1.2136   -5.1661    0.4699 H         1 <0>         0.4736
@<TRIPOS>BOND
     1    1    2 1
     2    1   28 1
     3    1   29 1
     4    1   30 1
     5    2    3 1
     6    2   25 1
     7    2   31 1
     8    3    4 1
     9    3   20 1
    10    3   32 1
    11    4   13 ar
    12    4    5 ar
    13    5    6 ar
    14    5   33 1
    15    6    7 ar
    16    6   34 1
    17    7   12 ar
    18    7    8 ar
    19    8    9 ar
    20    8   35 1
    21    9   10 ar
    22    9   14 1
    23   10   11 ar
    24   10   36 1
    25   11   12 ar
    26   11   37 1
    27   12   13 ar
    28   13   38 1
    29   14   15 1
    30   15   16 1
    31   15   39 1
    32   15   40 1
    33   16   17 1
    34   16   18 1
    35   16   19 1
    36   17   41 1
    37   17   42 1
    38   17   43 1
    39   18   44 1
    40   18   45 1
    41   18   46 1
    42   19   47 1
    43   19   48 1
    44   19   49 1
    45   20   24 1
    46   20   21 1
    47   21   22 2
    48   21   50 1
    49   22   23 1
    50   22   51 1
    51   23   24 2
    52   23   60 1
    53   24   52 1
    54   25   26 1
    55   25   27 1
    56   25   59 1
    57   26   53 1
    58   26   54 1
    59   26   55 1
    60   27   56 1
    61   27   57 1
    62   27   58 1
@<TRIPOS>MOLECULE
CHEMBL180805
   59    61     0     0     0
SMALL
USER_CHARGES

@<TRIPOS>ATOM
      1 C1         -0.0093    1.5074    0.3225 C.3       1 <0>        -0.1800
      2 C2         -0.2686    0.0085    0.1581 C.3       1 <0>         0.0155
      3 C3          0.4035   -0.7539    1.3018 C.3       1 <0>         0.1735
      4 C4         -0.2362   -0.3643    2.6095 C.ar      1 <0>        -0.1400
      5 C5         -1.5971   -0.5944    2.8033 C.ar      1 <0>        -0.1069
      6 C6         -2.2055   -0.2546    3.9722 C.ar      1 <0>        -0.0931
      7 C7         -1.4531    0.3372    5.0016 C.ar      1 <0>         0.0036
      8 C8         -2.0471    0.7006    6.2214 C.ar      1 <0>        -0.1634
      9 C9         -1.2848    1.2731    7.1993 C.ar      1 <0>         0.1564
     10 C10         0.0806    1.5031    7.0024 C.ar      1 <0>        -0.1818
     11 C11         0.6851    1.1631    5.8327 C.ar      1 <0>        -0.0621
     12 C12        -0.0690    0.5708    4.8045 C.ar      1 <0>        -0.0890
     13 C13         0.5248    0.2019    3.5855 C.ar      1 <0>        -0.0492
     14 O1         -1.8606    1.6242    8.3790 O.3       1 <0>        -0.3029
     15 C14        -1.0123    2.2188    9.3634 C.3       1 <0>         0.0656
     16 C15        -1.8318    2.5435   10.6139 C.3       1 <0>        -0.0659
     17 C16        -2.4388    1.2558   11.1745 C.3       1 <0>        -0.1434
     18 C17        -0.9236    3.1802   11.6678 C.3       1 <0>        -0.1444
     19 C18        -2.9527    3.5193   10.2499 C.3       1 <0>        -0.1429
     20 N1          0.2426   -2.1944    1.0894 N.pl3     1 <0>        -0.4813
     21 C19         1.2373   -3.1345    1.1096 C.2       1 <0>        -0.0572
     22 C20         0.6538   -4.3244    0.8700 C.2       1 <0>        -0.0082
     23 N2         -0.6614   -4.1164    0.7080 N.2       1 <0>        -0.4682
     24 C21        -0.9157   -2.8436    0.8431 C.2       1 <0>         0.1665
     25 N3          0.2839   -0.4462   -1.1248 N.4       1 <0>        -0.3871
     26 C22        -0.4285    0.2145   -2.2265 C.3       1 <0>        -0.0514
     27 C23         1.7115   -0.1062   -1.1911 C.3       1 <0>        -0.0596
     28 H1          1.0643    1.6947    0.3025 H         1 <0>         0.0876
     29 H2         -0.4881    2.0504   -0.4922 H         1 <0>         0.0929
     30 H3         -0.4193    1.8448    1.2745 H         1 <0>         0.1132
     31 H4         -1.3422   -0.1788    0.1782 H         1 <0>         0.1461
     32 H5          1.4648   -0.5069    1.3287 H         1 <0>         0.1275
     33 H6         -2.1774   -1.0489    2.0140 H         1 <0>         0.1191
     34 H7         -3.2611   -0.4382    4.1080 H         1 <0>         0.1368
     35 H8         -3.1007    0.5286    6.3850 H         1 <0>         0.1407
     36 H9          0.6630    1.9575    7.7902 H         1 <0>         0.1369
     37 H10         1.7402    1.3472    5.6942 H         1 <0>         0.1359
     38 H11         1.5791    0.3704    3.4225 H         1 <0>         0.1305
     39 H12        -0.2138    1.5236    9.6226 H         1 <0>         0.0657
     40 H13        -0.5799    3.1362    8.9640 H         1 <0>         0.0656
     41 H14        -1.6403    0.5606   11.4337 H         1 <0>         0.0548
     42 H15        -3.0227    1.4871   12.0653 H         1 <0>         0.0610
     43 H16        -3.0858    0.8022   10.4236 H         1 <0>         0.0628
     44 H17        -0.4912    4.0976   11.2684 H         1 <0>         0.0590
     45 H18        -1.5075    3.4115   12.5587 H         1 <0>         0.0693
     46 H19        -0.1251    2.4850   11.9271 H         1 <0>         0.0592
     47 H20        -3.5997    3.0658    9.4991 H         1 <0>         0.0627
     48 H21        -3.5365    3.7507   11.1408 H         1 <0>         0.0609
     49 H22        -2.5203    4.4367    9.8505 H         1 <0>         0.0545
     50 H23         2.2881   -2.9563    1.2837 H         1 <0>         0.1827
     51 H24         1.1566   -5.2787    0.8175 H         1 <0>         0.1791
     52 H25        -1.8906   -2.3850    0.7678 H         1 <0>         0.2050
     53 H26        -0.2915    1.2933   -2.1526 H         1 <0>         0.1275
     54 H27        -0.0318   -0.1377   -3.1787 H         1 <0>         0.1286
     55 H28        -1.4908   -0.0219   -2.1658 H         1 <0>         0.1253
     56 H29         2.2401   -0.5965   -0.3737 H         1 <0>         0.1185
     57 H30         2.1215   -0.4437   -2.1431 H         1 <0>         0.1302
     58 H31         1.8321    0.9737   -1.1059 H         1 <0>         0.1309
     59 H32         0.1723   -1.4459   -1.2037 H         1 <0>         0.4263
@<TRIPOS>BOND
     1    1    2 1
     2    1   28 1
     3    1   29 1
     4    1   30 1
     5    2    3 1
     6    2   25 1
     7    2   31 1
     8    3    4 1
     9    3   20 1
    10    3   32 1
    11    4   13 ar
    12    4    5 ar
    13    5    6 ar
    14    5   33 1
    15    6    7 ar
    16    6   34 1
    17    7   12 ar
    18    7    8 ar
    19    8    9 ar
    20    8   35 1
    21    9   10 ar
    22    9   14 1
    23   10   11 ar
    24   10   36 1
    25   11   12 ar
    26   11   37 1
    27   12   13 ar
    28   13   38 1
    29   14   15 1
    30   15   16 1
    31   15   39 1
    32   15   40 1
    33   16   17 1
    34   16   18 1
    35   16   19 1
    36   17   41 1
    37   17   42 1
    38   17   43 1
    39   18   44 1
    40   18   45 1
    41   18   46 1
    42   19   47 1
    43   19   48 1
    44   19   49 1
    45   20   24 1
    46   20   21 1
    47   21   22 2
    48   21   50 1
    49   22   23 1
    50   22   51 1
    51   23   24 2
    52   24   52 1
    53   25   26 1
    54   25   27 1
    55   25   59 1
    56   26   53 1
    57   26   54 1
    58   26   55 1
    59   27   56 1
    60   27   57 1
    61   27   58 1
@<TRIPOS>MOLECULE
CHEMBL180805
   60    62     0     0     0
SMALL
USER_CHARGES

@<TRIPOS>ATOM
      1 C1          0.1838    1.3947   -0.3052 C.3       1 <0>        -0.1835
      2 C2          0.2036   -0.1235   -0.1165 C.3       1 <0>         0.0147
      3 C3          0.6366   -0.4540    1.3132 C.3       1 <0>         0.1702
      4 C4          2.0530    0.0129    1.5299 C.ar      1 <0>        -0.1725
      5 C5          3.0739   -0.4980    0.7304 C.ar      1 <0>        -0.1194
      6 C6          4.3634   -0.0974    0.9000 C.ar      1 <0>        -0.0818
      7 C7          4.6737    0.8459    1.8949 C.ar      1 <0>         0.0111
      8 C8          5.9929    1.2830    2.0982 C.ar      1 <0>        -0.1692
      9 C9          6.2570    2.2010    3.0742 C.ar      1 <0>         0.1727
     10 C10         5.2308    2.7121    3.8752 C.ar      1 <0>        -0.1759
     11 C11         3.9435    2.3088    3.7036 C.ar      1 <0>        -0.0605
     12 C12         3.6352    1.3657    2.7076 C.ar      1 <0>        -0.0951
     13 C13         2.3151    0.9313    2.4995 C.ar      1 <0>        -0.0283
     14 O1          7.5338    2.6231    3.2700 O.3       1 <0>        -0.2979
     15 C14         7.7477    3.5843    4.3055 C.3       1 <0>         0.0637
     16 C15         9.2351    3.9358    4.3757 C.3       1 <0>        -0.0656
     17 C16         9.6846    4.5214    3.0355 C.3       1 <0>        -0.1442
     18 C17         9.4642    4.9649    5.4845 C.3       1 <0>        -0.1458
     19 C18        10.0441    2.6726    4.6773 C.3       1 <0>        -0.1442
     20 N1          0.5621   -1.9019    1.5236 N.pl3     1 <0>        -0.4345
     21 C19         1.1386   -2.8669    0.7424 C.2       1 <0>        -0.0003
     22 C20         0.8218   -4.0544    1.2928 C.2       1 <0>         0.0321
     23 N2          0.0723   -3.8210    2.3803 N.pl3     1 <0>        -0.4661
     24 C21        -0.0831   -2.5337    2.5277 C.cat     1 <0>         0.2939
     25 N3         -1.1404   -0.6646   -0.3586 N.4       1 <0>        -0.3915
     26 C22        -2.1087    0.0248    0.5046 C.3       1 <0>        -0.0669
     27 C23        -1.5053   -0.4577   -1.7665 C.3       1 <0>        -0.0539
     28 H1          1.1811    1.7963   -0.1256 H         1 <0>         0.1197
     29 H2         -0.1247    1.6302   -1.3238 H         1 <0>         0.1024
     30 H3         -0.5192    1.8393    0.3992 H         1 <0>         0.0932
     31 H4          0.9066   -0.5680   -0.8210 H         1 <0>         0.1552
     32 H5         -0.0240    0.0500    2.0186 H         1 <0>         0.1514
     33 H6          2.8383   -1.2229   -0.0347 H         1 <0>         0.1172
     34 H7          5.1444   -0.5024    0.2735 H         1 <0>         0.1411
     35 H8          6.7939    0.8950    1.4865 H         1 <0>         0.1453
     36 H9          5.4640    3.4370    4.6410 H         1 <0>         0.1427
     37 H10         3.1612    2.7114    4.3300 H         1 <0>         0.1402
     38 H11         1.5130    1.3214    3.1086 H         1 <0>         0.1353
     39 H12         7.1714    4.4842    4.0907 H         1 <0>         0.0689
     40 H13         7.4276    3.1671    5.2603 H         1 <0>         0.0684
     41 H14         9.1083    5.4213    2.8207 H         1 <0>         0.0554
     42 H15        10.7442    4.7718    3.0855 H         1 <0>         0.0637
     43 H16         9.5213    3.7882    2.2456 H         1 <0>         0.0617
     44 H17         9.1441    4.5477    6.4392 H         1 <0>         0.0598
     45 H18        10.5239    5.2154    5.5344 H         1 <0>         0.0719
     46 H19         8.8879    5.8648    5.2696 H         1 <0>         0.0601
     47 H20         9.8808    1.9395    3.8874 H         1 <0>         0.0616
     48 H21        11.1037    2.9231    4.7272 H         1 <0>         0.0637
     49 H22         9.7239    2.2554    5.6320 H         1 <0>         0.0551
     50 H23         1.7330   -2.7066   -0.1449 H         1 <0>         0.2262
     51 H24         1.1191   -5.0247    0.9233 H         1 <0>         0.2327
     52 H25        -0.6381   -2.0532    3.3199 H         1 <0>         0.2664
     53 H26        -2.1006    1.0914    0.2801 H         1 <0>         0.1407
     54 H27        -3.1060   -0.3767    0.3250 H         1 <0>         0.1378
     55 H28        -1.8379   -0.1287    1.5492 H         1 <0>         0.1154
     56 H29        -1.6012    0.6100   -1.9638 H         1 <0>         0.1342
     57 H30        -0.7307   -0.8776   -2.4081 H         1 <0>         0.1293
     58 H31        -2.4548   -0.9519   -1.9721 H         1 <0>         0.1343
     59 H32        -1.1479   -1.6520   -0.1508 H         1 <0>         0.4143
     60 H33        -0.2933   -4.5015    2.9669 H         1 <0>         0.4735
@<TRIPOS>BOND
     1    1    2 1
     2    1   28 1
     3    1   29 1
     4    1   30 1
     5    2    3 1
     6    2   25 1
     7    2   31 1
     8    3    4 1
     9    3   20 1
    10    3   32 1
    11    4   13 ar
    12    4    5 ar
    13    5    6 ar
    14    5   33 1
    15    6    7 ar
    16    6   34 1
    17    7   12 ar
    18    7    8 ar
    19    8    9 ar
    20    8   35 1
    21    9   10 ar
    22    9   14 1
    23   10   11 ar
    24   10   36 1
    25   11   12 ar
    26   11   37 1
    27   12   13 ar
    28   13   38 1
    29   14   15 1
    30   15   16 1
    31   15   39 1
    32   15   40 1
    33   16   17 1
    34   16   18 1
    35   16   19 1
    36   17   41 1
    37   17   42 1
    38   17   43 1
    39   18   44 1
    40   18   45 1
    41   18   46 1
    42   19   47 1
    43   19   48 1
    44   19   49 1
    45   20   24 1
    46   20   21 1
    47   21   22 2
    48   21   50 1
    49   22   23 1
    50   22   51 1
    51   23   24 2
    52   23   60 1
    53   24   52 1
    54   25   26 1
    55   25   27 1
    56   25   59 1
    57   26   53 1
    58   26   54 1
    59   26   55 1
    60   27   56 1
    61   27   57 1
    62   27   58 1
@<TRIPOS>MOLECULE
CHEMBL180805
   59    61     0     0     0
SMALL
USER_CHARGES

@<TRIPOS>ATOM
      1 C1         -0.3907    1.4244   -0.0669 C.3       1 <0>        -0.1798
      2 C2         -0.2182   -0.0933   -0.1562 C.3       1 <0>         0.0151
      3 C3          0.8096   -0.4268   -1.2393 C.3       1 <0>         0.1736
      4 C4          0.2852    0.0127   -2.5820 C.ar      1 <0>        -0.1395
      5 C5         -0.9099   -0.5214   -3.0604 C.ar      1 <0>        -0.1072
      6 C6         -1.4111   -0.1458   -4.2686 C.ar      1 <0>        -0.0929
      7 C7         -0.7158    0.7950   -5.0480 C.ar      1 <0>         0.0035
      8 C8         -1.2030    1.2066   -6.2994 C.ar      1 <0>        -0.1634
      9 C9         -0.5008    2.1230   -7.0291 C.ar      1 <0>         0.1564
     10 C10         0.6982    2.6574   -6.5469 C.ar      1 <0>        -0.1818
     11 C11         1.1965    2.2791   -5.3395 C.ar      1 <0>        -0.0621
     12 C12         0.4994    1.3384   -4.5612 C.ar      1 <0>        -0.0889
     13 C13         0.9828    0.9295   -3.3067 C.ar      1 <0>        -0.0493
     14 O1         -0.9732    2.5204   -8.2396 O.3       1 <0>        -0.3029
     15 C14        -0.1950    3.4811   -8.9561 C.3       1 <0>         0.0656
     16 C15        -0.8803    3.8034  -10.2855 C.3       1 <0>        -0.0659
     17 C16        -2.2737    4.3747  -10.0157 C.3       1 <0>        -0.1429
     18 C17        -0.0471    4.8320  -11.0527 C.3       1 <0>        -0.1444
     19 C18        -1.0054    2.5256  -11.1177 C.3       1 <0>        -0.1434
     20 N1          1.0483   -1.8721   -1.2576 N.pl3     1 <0>        -0.4813
     21 C19         2.2646   -2.4956   -1.1829 C.2       1 <0>        -0.0587
     22 C20         2.0272   -3.8202   -1.2327 C.2       1 <0>        -0.0079
     23 N2          0.7020   -4.0007   -1.3349 N.2       1 <0>        -0.4685
     24 C21         0.1089   -2.8384   -1.3453 C.2       1 <0>         0.1677
     25 N3          0.2483   -0.6101    1.1373 N.4       1 <0>        -0.3873
     26 C22         1.4718    0.0989    1.5354 C.3       1 <0>        -0.0595
     27 C23        -0.7921   -0.3994    2.1528 C.3       1 <0>        -0.0504
     28 H1          0.5648    1.8844    0.1850 H         1 <0>         0.0876
     29 H2         -0.7369    1.8078   -1.0267 H         1 <0>         0.1130
     30 H3         -1.1230    1.6620    0.7048 H         1 <0>         0.0926
     31 H4         -1.1737   -0.5533   -0.4080 H         1 <0>         0.1461
     32 H5          1.7437    0.0930   -1.0262 H         1 <0>         0.1274
     33 H6         -1.4461   -1.2444   -2.4635 H         1 <0>         0.1191
     34 H7         -2.3381   -0.5687   -4.6270 H         1 <0>         0.1369
     35 H8         -2.1274    0.8004   -6.6827 H         1 <0>         0.1407
     36 H9          1.2362    3.3805   -7.1419 H         1 <0>         0.1369
     37 H10         2.1241    2.6996   -4.9800 H         1 <0>         0.1360
     38 H11         1.9054    1.3378   -2.9212 H         1 <0>         0.1305
     39 H12        -0.1058    4.3915   -8.3633 H         1 <0>         0.0656
     40 H13         0.7977    3.0741   -9.1483 H         1 <0>         0.0657
     41 H14        -2.1846    5.2851   -9.4229 H         1 <0>         0.0545
     42 H15        -2.7620    4.6043  -10.9628 H         1 <0>         0.0610
     43 H16        -2.8673    3.6419   -9.4692 H         1 <0>         0.0627
     44 H17         0.9456    4.4250  -11.2449 H         1 <0>         0.0592
     45 H18        -0.5353    5.0616  -11.9998 H         1 <0>         0.0693
     46 H19         0.0421    5.7423  -10.4599 H         1 <0>         0.0590
     47 H20        -1.5990    1.7927  -10.5712 H         1 <0>         0.0628
     48 H21        -1.4937    2.7551  -12.0648 H         1 <0>         0.0610
     49 H22        -0.0127    2.1185  -11.3099 H         1 <0>         0.0548
     50 H23         3.2293   -2.0171   -1.1003 H         1 <0>         0.1826
     51 H24         2.7730   -4.6005   -1.1965 H         1 <0>         0.1791
     52 H25        -0.9565   -2.6759   -1.4153 H         1 <0>         0.2051
     53 H26         1.2615    1.1647    1.6244 H         1 <0>         0.1311
     54 H27         1.8179   -0.2846    2.4952 H         1 <0>         0.1302
     55 H28         2.2438   -0.0574    0.7819 H         1 <0>         0.1186
     56 H29        -1.7299   -0.8348    1.8079 H         1 <0>         0.1251
     57 H30        -0.4913   -0.8765    3.0856 H         1 <0>         0.1284
     58 H31        -0.9270    0.6695    2.3184 H         1 <0>         0.1271
     59 H32         0.4430   -1.5967    1.0549 H         1 <0>         0.4263
@<TRIPOS>BOND
     1    1    2 1
     2    1   28 1
     3    1   29 1
     4    1   30 1
     5    2    3 1
     6    2   25 1
     7    2   31 1
     8    3    4 1
     9    3   20 1
    10    3   32 1
    11    4   13 ar
    12    4    5 ar
    13    5    6 ar
    14    5   33 1
    15    6    7 ar
    16    6   34 1
    17    7   12 ar
    18    7    8 ar
    19    8    9 ar
    20    8   35 1
    21    9   10 ar
    22    9   14 1
    23   10   11 ar
    24   10   36 1
    25   11   12 ar
    26   11   37 1
    27   12   13 ar
    28   13   38 1
    29   14   15 1
    30   15   16 1
    31   15   39 1
    32   15   40 1
    33   16   17 1
    34   16   18 1
    35   16   19 1
    36   17   41 1
    37   17   42 1
    38   17   43 1
    39   18   44 1
    40   18   45 1
    41   18   46 1
    42   19   47 1
    43   19   48 1
    44   19   49 1
    45   20   24 1
    46   20   21 1
    47   21   22 2
    48   21   50 1
    49   22   23 1
    50   22   51 1
    51   23   24 2
    52   24   52 1
    53   25   26 1
    54   25   27 1
    55   25   59 1
    56   26   53 1
    57   26   54 1
    58   26   55 1
    59   27   56 1
    60   27   57 1
    61   27   58 1
@<TRIPOS>MOLECULE
CHEMBL180805
   60    62     0     0     0
SMALL
USER_CHARGES

@<TRIPOS>ATOM
      1 C1         -0.0146    1.4689   -0.0867 C.3       1 <0>        -0.2243
      2 C2          0.1850   -0.0475   -0.1267 C.3       1 <0>         0.0161
      3 C3          0.8475   -0.5091    1.1729 C.3       1 <0>         0.1709
      4 C4          2.2400    0.0611    1.2570 C.ar      1 <0>        -0.1709
      5 C5          2.4110    1.4176    1.5271 C.ar      1 <0>        -0.1343
      6 C6          3.6547    1.9641    1.6098 C.ar      1 <0>        -0.0794
      7 C7          4.7857    1.1509    1.4208 C.ar      1 <0>         0.0095
      8 C8          6.0844    1.6800    1.4992 C.ar      1 <0>        -0.1683
      9 C9          7.1600    0.8598    1.3104 C.ar      1 <0>         0.1721
     10 C10         6.9857   -0.5010    1.0394 C.ar      1 <0>        -0.1752
     11 C11         5.7415   -1.0435    0.9566 C.ar      1 <0>        -0.0609
     12 C12         4.6116   -0.2287    1.1464 C.ar      1 <0>        -0.0934
     13 C13         3.3117   -0.7576    1.0735 C.ar      1 <0>        -0.0298
     14 O1          8.4160    1.3729    1.3866 O.3       1 <0>        -0.2978
     15 C14         9.5008    0.4660    1.1801 C.3       1 <0>         0.0636
     16 C15        10.8264    1.2200    1.3033 C.3       1 <0>        -0.0656
     17 C16        10.9351    1.8356    2.6998 C.3       1 <0>        -0.1442
     18 C17        11.9879    0.2490    1.0823 C.3       1 <0>        -0.1458
     19 C18        10.8818    2.3294    0.2512 C.3       1 <0>        -0.1442
     20 N1          0.0588   -0.0421    2.3158 N.pl3     1 <0>        -0.4277
     21 C19        -0.2292    1.2595    2.6263 C.2       1 <0>         0.0006
     22 C20        -0.9741    1.2368    3.7480 C.2       1 <0>         0.0277
     23 N2         -1.1365   -0.0437    4.1124 N.pl3     1 <0>        -0.4637
     24 C21        -0.5247   -0.8157    3.2563 C.cat     1 <0>         0.2857
     25 N3         -1.1182   -0.7093   -0.2738 N.4       1 <0>        -0.3916
     26 C22        -1.7543   -0.2661   -1.5216 C.3       1 <0>        -0.0541
     27 C23        -0.9265   -2.1652   -0.3122 C.3       1 <0>        -0.0629
     28 H1          0.9242    1.9519    0.1841 H         1 <0>         0.1299
     29 H2         -0.3336    1.8193   -1.0683 H         1 <0>         0.1087
     30 H3         -0.7767    1.7157    0.6525 H         1 <0>         0.0868
     31 H4          0.8223   -0.3080   -0.9718 H         1 <0>         0.1775
     32 H5          0.8992   -1.5978    1.1877 H         1 <0>         0.1517
     33 H6          1.5438    2.0445    1.6727 H         1 <0>         0.1260
     34 H7          3.7720    3.0171    1.8191 H         1 <0>         0.1420
     35 H8          6.2316    2.7295    1.7073 H         1 <0>         0.1455
     36 H9          7.8515   -1.1299    0.8933 H         1 <0>         0.1429
     37 H10         5.6218   -2.0960    0.7459 H         1 <0>         0.1404
     38 H11         3.1637   -1.8076    0.8688 H         1 <0>         0.1359
     39 H12         9.4614   -0.3244    1.9297 H         1 <0>         0.0685
     40 H13         9.4234    0.0274    0.1853 H         1 <0>         0.0688
     41 H14        10.8956    1.0453    3.4494 H         1 <0>         0.0552
     42 H15        11.8794    2.3728    2.7876 H         1 <0>         0.0637
     43 H16        10.1076    2.5274    2.8573 H         1 <0>         0.0616
     44 H17        11.9105   -0.1896    0.0874 H         1 <0>         0.0600
     45 H18        12.9323    0.7862    1.1701 H         1 <0>         0.0719
     46 H19        11.9485   -0.5414    1.8319 H         1 <0>         0.0599
     47 H20        10.0543    3.0212    0.4087 H         1 <0>         0.0617
     48 H21        11.8262    2.8666    0.3389 H         1 <0>         0.0637
     49 H22        10.8044    1.8908   -0.7437 H         1 <0>         0.0554
     50 H23         0.0815    2.1362    2.0775 H         1 <0>         0.2338
     51 H24        -1.3711    2.0987    4.2637 H         1 <0>         0.2330
     52 H25        -0.4889   -1.8944    3.2951 H         1 <0>         0.2656
     53 H26        -1.1171   -0.5266   -2.3667 H         1 <0>         0.1329
     54 H27        -2.7213   -0.7571   -1.6308 H         1 <0>         0.1342
     55 H28        -1.8965    0.8142   -1.4931 H         1 <0>         0.1302
     56 H29        -0.2893   -2.4257   -1.1573 H         1 <0>         0.1377
     57 H30        -0.4545   -2.4941    0.6137 H         1 <0>         0.1156
     58 H31        -1.8935   -2.6563   -0.4213 H         1 <0>         0.1390
     59 H32        -1.7081   -0.4682    0.5085 H         1 <0>         0.4150
     60 H33        -1.6334   -0.3482    4.8878 H         1 <0>         0.4732
@<TRIPOS>BOND
     1    1    2 1
     2    1   28 1
     3    1   29 1
     4    1   30 1
     5    2    3 1
     6    2   25 1
     7    2   31 1
     8    3    4 1
     9    3   20 1
    10    3   32 1
    11    4   13 ar
    12    4    5 ar
    13    5    6 ar
    14    5   33 1
    15    6    7 ar
    16    6   34 1
    17    7   12 ar
    18    7    8 ar
    19    8    9 ar
    20    8   35 1
    21    9   10 ar
    22    9   14 1
    23   10   11 ar
    24   10   36 1
    25   11   12 ar
    26   11   37 1
    27   12   13 ar
    28   13   38 1
    29   14   15 1
    30   15   16 1
    31   15   39 1
    32   15   40 1
    33   16   17 1
    34   16   18 1
    35   16   19 1
    36   17   41 1
    37   17   42 1
    38   17   43 1
    39   18   44 1
    40   18   45 1
    41   18   46 1
    42   19   47 1
    43   19   48 1
    44   19   49 1
    45   20   24 1
    46   20   21 1
    47   21   22 2
    48   21   50 1
    49   22   23 1
    50   22   51 1
    51   23   24 2
    52   23   60 1
    53   24   52 1
    54   25   26 1
    55   25   27 1
    56   25   59 1
    57   26   53 1
    58   26   54 1
    59   26   55 1
    60   27   56 1
    61   27   57 1
    62   27   58 1
@<TRIPOS>MOLECULE
CHEMBL180805
   59    61     0     0     0
SMALL
USER_CHARGES

@<TRIPOS>ATOM
      1 C1         -0.0883    1.4801    0.0443 C.3       1 <0>        -0.2205
      2 C2         -0.2061   -0.0383   -0.1017 C.3       1 <0>         0.0193
      3 C3          0.6061   -0.4987   -1.3138 C.3       1 <0>         0.1716
      4 C4         -0.0146    0.0507   -2.5724 C.ar      1 <0>        -0.1393
      5 C5          0.1108    1.4079   -2.8636 C.ar      1 <0>        -0.1197
      6 C6         -0.4377    1.9359   -3.9917 C.ar      1 <0>        -0.0919
      7 C7         -1.1414    1.1027   -4.8787 C.ar      1 <0>         0.0031
      8 C8         -1.7202    1.6124   -6.0526 C.ar      1 <0>        -0.1626
      9 C9         -2.3964    0.7731   -6.8913 C.ar      1 <0>         0.1561
     10 C10        -2.5209   -0.5884   -6.5967 C.ar      1 <0>        -0.1813
     11 C11        -1.9724   -1.1124   -5.4681 C.ar      1 <0>        -0.0627
     12 C12        -1.2685   -0.2776   -4.5825 C.ar      1 <0>        -0.0885
     13 C13        -0.6844   -0.7870   -3.4103 C.ar      1 <0>        -0.0519
     14 O1         -2.9559    1.2674   -8.0267 O.3       1 <0>        -0.3027
     15 C14        -3.6504    0.3410   -8.8642 C.3       1 <0>         0.0656
     16 C15        -4.2077    1.0757  -10.0850 C.3       1 <0>        -0.0659
     17 C16        -3.0562    1.7081  -10.8692 C.3       1 <0>        -0.1435
     18 C17        -4.9513    0.0838  -10.9817 C.3       1 <0>        -0.1444
     19 C18        -5.1729    2.1701   -9.6249 C.3       1 <0>        -0.1429
     20 N1          1.9818   -0.0097   -1.1941 N.pl3     1 <0>        -0.4766
     21 C19         3.1157   -0.7757   -1.1561 C.2       1 <0>        -0.0662
     22 C20         4.1553    0.0727   -1.0416 C.2       1 <0>        -0.0057
     23 N2          3.6695    1.3225   -1.0106 N.2       1 <0>        -0.4723
     24 C21         2.3687    1.2812   -1.1066 C.2       1 <0>         0.1682
     25 N3          0.3112   -0.6883    1.1099 N.4       1 <0>        -0.3877
     26 C22        -0.4686   -0.2463    2.2737 C.3       1 <0>        -0.0507
     27 C23         0.1980   -2.1462    0.9697 C.3       1 <0>        -0.0561
     28 H1          0.9289    1.7390    0.3383 H         1 <0>         0.0942
     29 H2         -0.3236    1.9560   -0.9077 H         1 <0>         0.1227
     30 H3         -0.7862    1.8271    0.8063 H         1 <0>         0.0962
     31 H4         -1.2525   -0.3098   -0.2411 H         1 <0>         0.1595
     32 H5          0.6100   -1.5879   -1.3561 H         1 <0>         0.1281
     33 H6          0.6509    2.0501   -2.1839 H         1 <0>         0.1313
     34 H7         -0.3331    2.9896   -4.2041 H         1 <0>         0.1381
     35 H8         -1.6313    2.6621   -6.2904 H         1 <0>         0.1412
     36 H9         -3.0607   -1.2326   -7.2750 H         1 <0>         0.1370
     37 H10        -2.0770   -2.1655   -5.2530 H         1 <0>         0.1359
     38 H11        -0.7699   -1.8372   -3.1735 H         1 <0>         0.1310
     39 H12        -2.9628   -0.4387   -9.1919 H         1 <0>         0.0657
     40 H13        -4.4708   -0.1095   -8.3055 H         1 <0>         0.0655
     41 H14        -2.3685    0.9285  -11.1970 H         1 <0>         0.0548
     42 H15        -3.4532    2.2316  -11.7390 H         1 <0>         0.0611
     43 H16        -2.5264    2.4147  -10.2304 H         1 <0>         0.0629
     44 H17        -5.7717   -0.3667  -10.4230 H         1 <0>         0.0590
     45 H18        -5.3483    0.6073  -11.8515 H         1 <0>         0.0694
     46 H19        -4.2636   -0.6958  -11.3095 H         1 <0>         0.0592
     47 H20        -4.6432    2.8767   -8.9861 H         1 <0>         0.0628
     48 H21        -5.5699    2.6935  -10.4947 H         1 <0>         0.0610
     49 H22        -5.9933    1.7196   -9.0662 H         1 <0>         0.0544
     50 H23         3.1667   -1.8532   -1.2076 H         1 <0>         0.1818
     51 H24         5.1975   -0.2048   -0.9847 H         1 <0>         0.1785
     52 H25         1.7104    2.1373   -1.1124 H         1 <0>         0.2145
     53 H26        -1.5150   -0.5178    2.1343 H         1 <0>         0.1256
     54 H27        -0.0848   -0.7286    3.1727 H         1 <0>         0.1278
     55 H28        -0.3847    0.8355    2.3777 H         1 <0>         0.1268
     56 H29         0.7766   -2.4742    0.1062 H         1 <0>         0.1192
     57 H30         0.5819   -2.6285    1.8687 H         1 <0>         0.1310
     58 H31        -0.8484   -2.4177    0.8303 H         1 <0>         0.1281
     59 H32         1.2798   -0.4370    1.2389 H         1 <0>         0.4255
@<TRIPOS>BOND
     1    1    2 1
     2    1   28 1
     3    1   29 1
     4    1   30 1
     5    2    3 1
     6    2   25 1
     7    2   31 1
     8    3    4 1
     9    3   20 1
    10    3   32 1
    11    4   13 ar
    12    4    5 ar
    13    5    6 ar
    14    5   33 1
    15    6    7 ar
    16    6   34 1
    17    7   12 ar
    18    7    8 ar
    19    8    9 ar
    20    8   35 1
    21    9   10 ar
    22    9   14 1
    23   10   11 ar
    24   10   36 1
    25   11   12 ar
    26   11   37 1
    27   12   13 ar
    28   13   38 1
    29   14   15 1
    30   15   16 1
    31   15   39 1
    32   15   40 1
    33   16   17 1
    34   16   18 1
    35   16   19 1
    36   17   41 1
    37   17   42 1
    38   17   43 1
    39   18   44 1
    40   18   45 1
    41   18   46 1
    42   19   47 1
    43   19   48 1
    44   19   49 1
    45   20   24 1
    46   20   21 1
    47   21   22 2
    48   21   50 1
    49   22   23 1
    50   22   51 1
    51   23   24 2
    52   24   52 1
    53   25   26 1
    54   25   27 1
    55   25   59 1
    56   26   53 1
    57   26   54 1
    58   26   55 1
    59   27   56 1
    60   27   57 1
    61   27   58 1
@<TRIPOS>MOLECULE
CHEMBL596073
   60    65     0     0     0
SMALL
USER_CHARGES

@<TRIPOS>ATOM
      1 C1          3.7217    0.5143   -0.9789 C.3       1 <0>        -0.0780
      2 C2          2.7505   -0.5988   -0.6808 C.2       1 <0>         0.1240
      3 C3          1.7386   -1.0672   -1.5547 C.ar      1 <0>         0.0332
      4 C4          1.0705   -2.1073   -0.8795 C.ar      1 <0>         0.0865
      5 C5          0.0118   -2.7628   -1.5086 C.ar      1 <0>        -0.0892
      6 C6         -0.3426   -2.3683   -2.7703 C.ar      1 <0>        -0.1093
      7 C7          0.3578   -1.3281   -3.3924 C.ar      1 <0>         0.1308
      8 N1          1.3590   -0.7168   -2.7833 N.ar      1 <0>        -0.3834
      9 C8         -0.0301   -0.9049   -4.7586 C.ar      1 <0>        -0.0324
     10 C9         -0.2054   -1.8492   -5.7709 C.ar      1 <0>        -0.0764
     11 C10        -0.5698   -1.4018   -7.0349 C.ar      1 <0>         0.0568
     12 C11        -0.7470   -0.0417   -7.2516 C.ar      1 <0>         0.0406
     13 N2         -0.5755    0.8302   -6.2791 N.ar      1 <0>        -0.4347
     14 C12        -0.2332    0.4529   -5.0548 C.ar      1 <0>         0.2196
     15 C13        -0.0579    1.4713   -3.9934 C.2       1 <0>        -0.1385
     16 C14         0.6112    2.7722   -4.1154 C.2       1 <0>        -0.1788
     17 C15         0.5257    3.3478   -2.9048 C.2       1 <0>        -0.0327
     18 O1         -0.1268    2.5219   -2.0727 O.3       1 <0>        -0.1736
     19 C16        -0.4886    1.3974   -2.7060 C.2       1 <0>         0.0093
     20 O2         -0.7506   -2.2874   -8.0503 O.3       1 <0>        -0.3216
     21 C17        -1.1247   -1.7505   -9.3206 C.3       1 <0>         0.0259
     22 C18        -1.2811   -2.8898  -10.3298 C.3       1 <0>         0.0433
     23 H1         -0.3636   -3.4774  -10.3595 H         1 <0>         0.1530
     24 C19        -1.5590   -2.3076  -11.7172 C.3       1 <0>        -0.0556
     25 C20        -1.5912   -3.4212  -12.7320 C.2       1 <0>        -0.2374
     26 C21        -0.5680   -3.8352  -13.4959 C.2       1 <0>         0.1040
     27 N3         -0.9721   -4.8680  -14.2973 N.pl3     1 <0>        -0.5846
     28 H2         -0.4078   -5.3317  -14.9357 H         1 <0>         0.4265
     29 C22        -2.2990   -5.1510  -14.0628 C.ar      1 <0>         0.0987
     30 C23        -2.7434   -4.2613  -13.0674 C.ar      1 <0>        -0.1170
     31 C24        -4.0640   -4.3209  -12.6192 C.ar      1 <0>        -0.1139
     32 C25        -4.9188   -5.2470  -13.1478 C.ar      1 <0>        -0.1193
     33 C26        -4.4843   -6.1295  -14.1269 C.ar      1 <0>        -0.0933
     34 C27        -3.1875   -6.0820  -14.5904 C.ar      1 <0>        -0.1111
     35 N4         -2.4012   -3.7506   -9.9267 N.4       1 <0>        -0.6362
     36 N5          1.6752   -2.2365    0.3438 N.pl3     1 <0>        -0.4925
     37 H3          1.4339   -2.8735    1.0344 H         1 <0>         0.4490
     38 N6          2.7064   -1.2922    0.4197 N.2       1 <0>        -0.2288
     39 H4          4.6219    0.0993   -1.4322 H         1 <0>         0.0864
     40 H5          3.2618    1.2231   -1.6675 H         1 <0>         0.0882
     41 H6          3.9838    1.0255   -0.0526 H         1 <0>         0.0833
     42 H7         -0.5158   -3.5635   -1.0116 H         1 <0>         0.1462
     43 H8         -1.1578   -2.8569   -3.2832 H         1 <0>         0.1459
     44 H9         -0.0611   -2.9017   -5.5768 H         1 <0>         0.1505
     45 H10        -1.0299    0.3071   -8.2338 H         1 <0>         0.1610
     46 H11         1.0776    3.1828   -4.9987 H         1 <0>         0.1532
     47 H12         0.9192    4.3190   -2.6432 H         1 <0>         0.2066
     48 H13        -1.0285    0.5714   -2.2671 H         1 <0>         0.1912
     49 H14        -2.0704   -1.2170   -9.2254 H         1 <0>         0.0923
     50 H15        -0.3527   -1.0627   -9.6659 H         1 <0>         0.1141
     51 H16        -2.5207   -1.7946  -11.7100 H         1 <0>         0.0999
     52 H17        -0.7719   -1.6003  -11.9787 H         1 <0>         0.1219
     53 H18         0.4268   -3.4151  -13.4804 H         1 <0>         0.1792
     54 H19        -4.4090   -3.6378  -11.8570 H         1 <0>         0.1150
     55 H20        -5.9404   -5.2927  -12.8007 H         1 <0>         0.1311
     56 H21        -5.1714   -6.8562  -14.5345 H         1 <0>         0.1351
     57 H22        -2.8586   -6.7738  -15.3517 H         1 <0>         0.1293
     58 H23        -2.5044   -4.5019  -10.5922 H         1 <0>         0.4379
     59 H24        -2.2180   -4.1345   -9.0118 H         1 <0>         0.4392
     60 H25        -3.2505   -3.2065   -9.8993 H         1 <0>         0.4299
@<TRIPOS>BOND
     1    1    2 1
     2    1   39 1
     3    1   40 1
     4    1   41 1
     5    2   38 2
     6    2    3 1
     7    3    8 ar
     8    3    4 ar
     9    4    5 ar
    10    4   36 1
    11    5    6 ar
    12    5   42 1
    13    6    7 ar
    14    6   43 1
    15    7    8 ar
    16    7    9 1
    17    9   14 ar
    18    9   10 ar
    19   10   11 ar
    20   10   44 1
    21   11   12 ar
    22   11   20 1
    23   12   13 ar
    24   12   45 1
    25   13   14 ar
    26   14   15 1
    27   15   19 2
    28   15   16 1
    29   16   17 2
    30   16   46 1
    31   17   18 1
    32   17   47 1
    33   18   19 1
    34   19   48 1
    35   20   21 1
    36   21   22 1
    37   21   49 1
    38   21   50 1
    39   22   23 1
    40   22   24 1
    41   22   35 1
    42   24   25 1
    43   24   51 1
    44   24   52 1
    45   25   30 1
    46   25   26 2
    47   26   27 1
    48   26   53 1
    49   27   28 1
    50   27   29 1
    51   29   34 ar
    52   29   30 ar
    53   30   31 ar
    54   31   32 ar
    55   31   54 1
    56   32   33 ar
    57   32   55 1
    58   33   34 ar
    59   33   56 1
    60   34   57 1
    61   35   58 1
    62   35   59 1
    63   35   60 1
    64   36   37 1
    65   36   38 1
@<TRIPOS>MOLECULE
CHEMBL596290
   59    64     0     0     0
SMALL
USER_CHARGES

@<TRIPOS>ATOM
      1 C1         -3.1903   -4.9898   -1.8578 C.3       1 <0>        -0.0801
      2 C2         -2.3719   -3.9292   -1.1674 C.2       1 <0>         0.1350
      3 C3         -1.5870   -2.9415   -1.8115 C.ar      1 <0>        -0.0055
      4 C4         -0.9958   -2.1627   -0.7942 C.ar      1 <0>         0.2717
      5 N1         -1.4263   -2.6850    0.3965 N.pl3     1 <0>        -0.4740
      6 H1         -1.1885   -2.3603    1.2791 H         1 <0>         0.4545
      7 N2         -2.2730   -3.7646    0.1195 N.2       1 <0>        -0.2100
      8 N3         -0.1981   -1.1501   -1.1139 N.ar      1 <0>        -0.4474
      9 C5          0.0400   -0.8742   -2.3789 C.ar      1 <0>         0.1409
     10 C6         -0.5440   -1.6430   -3.3944 C.ar      1 <0>         0.0746
     11 N4         -1.3416   -2.6565   -3.0897 N.ar      1 <0>        -0.3362
     12 C7         -0.2687   -1.3215   -4.8144 C.ar      1 <0>        -0.0332
     13 C8         -0.3830   -0.0110   -5.2803 C.ar      1 <0>        -0.0743
     14 C9         -0.1137    0.2390   -6.6202 C.ar      1 <0>         0.0591
     15 C10         0.2576   -0.8119   -7.4484 C.ar      1 <0>         0.0445
     16 N5          0.3581   -2.0409   -6.9846 N.ar      1 <0>        -0.4328
     17 C11         0.1173   -2.3296   -5.7130 C.ar      1 <0>         0.2225
     18 C12         0.2507   -3.7264   -5.2380 C.2       1 <0>        -0.1393
     19 C13        -0.2017   -4.9427   -5.9242 C.2       1 <0>        -0.1782
     20 C14         0.1311   -5.9668   -5.1212 C.2       1 <0>        -0.0302
     21 O1          0.7364   -5.4844   -4.0252 O.3       1 <0>        -0.1725
     22 C15         0.8227   -4.1480   -4.0789 C.2       1 <0>         0.0057
     23 O2         -0.2132    1.5009   -7.1160 O.3       1 <0>        -0.3207
     24 C16         0.0796    1.6777   -8.5034 C.3       1 <0>         0.0255
     25 C17        -0.0850    3.1526   -8.8755 C.3       1 <0>         0.0432
     26 H2         -1.0835    3.4886   -8.5957 H         1 <0>         0.1532
     27 C18         0.1064    3.3226  -10.3839 C.3       1 <0>        -0.0556
     28 C19        -0.1762    4.7521  -10.7682 C.2       1 <0>        -0.2376
     29 C20        -1.3429    5.2430  -11.2152 C.2       1 <0>         0.1040
     30 N6         -1.2212    6.5835  -11.4617 N.pl3     1 <0>        -0.5846
     31 H3         -1.9314    7.1561  -11.7915 H         1 <0>         0.4265
     32 C21         0.0593    6.9984  -11.1720 C.ar      1 <0>         0.0988
     33 C22         0.7683    5.8707  -10.7188 C.ar      1 <0>        -0.1170
     34 C23         2.1070    5.9943  -10.3431 C.ar      1 <0>        -0.1140
     35 C24         2.7218    7.2128  -10.4140 C.ar      1 <0>        -0.1191
     36 C25         2.0257    8.3290  -10.8564 C.ar      1 <0>        -0.0932
     37 C26         0.7064    8.2276  -11.2411 C.ar      1 <0>        -0.1111
     38 N7          0.9189    3.9528   -8.1613 N.4       1 <0>        -0.6364
     39 H4         -4.1951   -4.6101   -2.0430 H         1 <0>         0.0904
     40 H5         -2.7203   -5.2517   -2.8057 H         1 <0>         0.0903
     41 H6         -3.2474   -5.8746   -1.2238 H         1 <0>         0.0875
     42 H7          0.6891   -0.0501   -2.6355 H         1 <0>         0.1825
     43 H8         -0.6740    0.7891   -4.6157 H         1 <0>         0.1524
     44 H9          0.4672   -0.6186   -8.4901 H         1 <0>         0.1628
     45 H10        -0.7006   -5.0020   -6.8802 H         1 <0>         0.1546
     46 H11        -0.0583   -7.0103   -5.3248 H         1 <0>         0.2080
     47 H12         1.2690   -3.5134   -3.3276 H         1 <0>         0.1884
     48 H13         1.1051    1.3655   -8.7010 H         1 <0>         0.0929
     49 H14        -0.6051    1.0741   -9.0991 H         1 <0>         0.1145
     50 H15         1.1328    3.0708  -10.6506 H         1 <0>         0.1001
     51 H16        -0.5794    2.6615  -10.9139 H         1 <0>         0.1219
     52 H17        -2.2440    4.6655  -11.3593 H         1 <0>         0.1791
     53 H18         2.6548    5.1302   -9.9971 H         1 <0>         0.1150
     54 H19         3.7576    7.3079  -10.1232 H         1 <0>         0.1312
     55 H20         2.5251    9.2853  -10.9063 H         1 <0>         0.1352
     56 H21         0.1729    9.1023  -11.5828 H         1 <0>         0.1293
     57 H22         0.8103    4.9255   -8.4066 H         1 <0>         0.4382
     58 H23         0.7927    3.8407   -7.1665 H         1 <0>         0.4393
     59 H24         1.8432    3.6417   -8.4202 H         1 <0>         0.4300
@<TRIPOS>BOND
     1    1    2 1
     2    1   39 1
     3    1   40 1
     4    1   41 1
     5    2    7 2
     6    2    3 1
     7    3   11 ar
     8    3    4 ar
     9    4    5 1
    10    4    8 ar
    11    5    6 1
    12    5    7 1
    13    8    9 ar
    14    9   10 ar
    15    9   42 1
    16   10   11 ar
    17   10   12 1
    18   12   17 ar
    19   12   13 ar
    20   13   14 ar
    21   13   43 1
    22   14   15 ar
    23   14   23 1
    24   15   16 ar
    25   15   44 1
    26   16   17 ar
    27   17   18 1
    28   18   22 2
    29   18   19 1
    30   19   20 2
    31   19   45 1
    32   20   21 1
    33   20   46 1
    34   21   22 1
    35   22   47 1
    36   23   24 1
    37   24   25 1
    38   24   48 1
    39   24   49 1
    40   25   26 1
    41   25   27 1
    42   25   38 1
    43   27   28 1
    44   27   50 1
    45   27   51 1
    46   28   33 1
    47   28   29 2
    48   29   30 1
    49   29   52 1
    50   30   31 1
    51   30   32 1
    52   32   37 ar
    53   32   33 ar
    54   33   34 ar
    55   34   35 ar
    56   34   53 1
    57   35   36 ar
    58   35   54 1
    59   36   37 ar
    60   36   55 1
    61   37   56 1
    62   38   57 1
    63   38   58 1
    64   38   59 1
@<TRIPOS>MOLECULE
CHEMBL1209842
   53    57     0     0     0
SMALL
USER_CHARGES

@<TRIPOS>ATOM
      1 C1         -0.2375    1.5010   -0.1010 C.3       1 <0>        -0.1756
      2 C2          0.0024   -0.0065    0.0031 C.3       1 <0>         0.1172
      3 H1         -0.9538   -0.5206    0.1014 H         1 <0>         0.0893
      4 C3          0.8554   -0.2972    1.2110 C.ar      1 <0>        -0.0845
      5 C4          2.2260   -0.4166    1.0767 C.ar      1 <0>        -0.0765
      6 C5          3.0086   -0.6832    2.1845 C.ar      1 <0>        -0.1135
      7 C6          2.4211   -0.8305    3.4274 C.ar      1 <0>        -0.1011
      8 C7          1.0510   -0.7113    3.5628 C.ar      1 <0>        -0.1107
      9 C8          0.2676   -0.4388    2.4552 C.ar      1 <0>        -0.0268
     10 Cl1        -1.4529   -0.2824    2.6256 Cl        1 <0>        -0.0670
     11 O1          0.6709   -0.4649   -1.1737 O.3       1 <0>        -0.2595
     12 C9         -0.1062   -0.7743   -2.2432 C.2       1 <0>         0.2012
     13 C10        -1.4598   -0.5443   -2.2209 C.2       1 <0>        -0.2359
     14 C11        -2.2098   -0.8698   -3.3187 C.2       1 <0>         0.1194
     15 S1         -0.9851   -1.5266   -4.4387 S.3       1 <0>         0.1469
     16 C12         0.4497   -1.3286   -3.3950 C.2       1 <0>        -0.2781
     17 C13         1.7984   -1.6520   -3.6653 C.2       1 <0>         0.6125
     18 O2          2.6546   -1.4472   -2.8232 O.2       1 <0>        -0.5178
     19 N1          2.1376   -2.1872   -4.8549 N.am      1 <0>        -0.8534
     20 N2         -3.5804   -0.7251   -3.5125 N.pl3     1 <0>        -0.4157
     21 C14        -4.5650   -1.1314   -2.6611 C.2       1 <0>         0.2790
     22 N3         -5.7320   -0.8379   -3.1552 N.2       1 <0>        -0.4707
     23 C15        -5.5794   -0.2231   -4.3574 C.ar      1 <0>         0.0641
     24 C16        -4.1979   -0.1367   -4.6025 C.ar      1 <0>         0.0378
     25 C17        -3.7323    0.4561   -5.7681 C.ar      1 <0>        -0.0981
     26 C18        -4.6243    0.9635   -6.6859 C.ar      1 <0>        -0.0922
     27 C19        -5.9997    0.8856   -6.4510 C.ar      1 <0>         0.0107
     28 C20        -6.4786    0.2895   -5.2935 C.ar      1 <0>        -0.0619
     29 C21        -6.9526    1.4363   -7.4481 C.2       1 <0>        -0.2020
     30 C22        -8.3572    1.4353   -7.3456 C.2       1 <0>         0.0666
     31 N4         -8.8429    2.0066   -8.4158 N.2       1 <0>        -0.2923
     32 N5         -7.7765    2.3919   -9.2372 N.pl3     1 <0>        -0.3709
     33 C23        -6.6263    2.0404   -8.6268 C.2       1 <0>         0.0742
     34 C24        -7.8901    3.0660  -10.5330 C.3       1 <0>         0.0981
     35 H2          0.7187    2.0151   -0.1993 H         1 <0>         0.0759
     36 H3         -0.8545    1.7112   -0.9747 H         1 <0>         0.0683
     37 H4         -0.7474    1.8506    0.7966 H         1 <0>         0.0805
     38 H5          2.6855   -0.3020    0.1061 H         1 <0>         0.1455
     39 H6          4.0793   -0.7767    2.0791 H         1 <0>         0.1332
     40 H7          3.0330   -1.0391    4.2925 H         1 <0>         0.1349
     41 H8          0.5921   -0.8268    4.5336 H         1 <0>         0.1372
     42 H9         -1.9267   -0.1124   -1.3481 H         1 <0>         0.1595
     43 H10         1.4559   -2.3503   -5.5254 H         1 <0>         0.3974
     44 H11         3.0634   -2.4092   -5.0405 H         1 <0>         0.4098
     45 H12        -4.4001   -1.6254   -1.7149 H         1 <0>         0.2210
     46 H13        -2.6704    0.5195   -5.9549 H         1 <0>         0.1270
     47 H14        -4.2593    1.4245   -7.5918 H         1 <0>         0.1338
     48 H15        -7.5418    0.2317   -5.1128 H         1 <0>         0.1365
     49 H16        -8.9327    1.0320   -6.5255 H         1 <0>         0.1876
     50 H17        -5.6278    2.2052   -9.0040 H         1 <0>         0.1787
     51 H18        -7.8842    4.1455  -10.3826 H         1 <0>         0.0782
     52 H19        -7.0486    2.7825  -11.1651 H         1 <0>         0.0900
     53 H20        -8.8222    2.7715  -11.0152 H         1 <0>         0.0923
@<TRIPOS>BOND
     1    1    2 1
     2    1   35 1
     3    1   36 1
     4    1   37 1
     5    2    3 1
     6    2    4 1
     7    2   11 1
     8    4    9 ar
     9    4    5 ar
    10    5    6 ar
    11    5   38 1
    12    6    7 ar
    13    6   39 1
    14    7    8 ar
    15    7   40 1
    16    8    9 ar
    17    8   41 1
    18    9   10 1
    19   11   12 1
    20   12   16 2
    21   12   13 1
    22   13   14 2
    23   13   42 1
    24   14   15 1
    25   14   20 1
    26   15   16 1
    27   16   17 1
    28   17   18 2
    29   17   19 am
    30   19   43 1
    31   19   44 1
    32   20   24 1
    33   20   21 1
    34   21   22 2
    35   21   45 1
    36   22   23 1
    37   23   28 ar
    38   23   24 ar
    39   24   25 ar
    40   25   26 ar
    41   25   46 1
    42   26   27 ar
    43   26   47 1
    44   27   28 ar
    45   27   29 1
    46   28   48 1
    47   29   33 2
    48   29   30 1
    49   30   31 2
    50   30   49 1
    51   31   32 1
    52   32   33 1
    53   32   34 1
    54   33   50 1
    55   34   51 1
    56   34   52 1
    57   34   53 1
@<TRIPOS>MOLECULE
CHEMBL270271
   36    38     0     0     0
SMALL
USER_CHARGES

@<TRIPOS>ATOM
      1 C1         -0.0187    1.5258    0.0104 C.3       1 <0>        -0.1483
      2 C2          0.0021   -0.0041    0.0020 C.3       1 <0>        -0.1174
      3 C3          0.7421   -0.5109    1.2415 C.3       1 <0>         0.0516
      4 C4          0.7575   -2.0594    1.2837 C.3       1 <0>         0.0316
      5 O1          0.8737   -2.3462    2.6921 O.3       1 <0>        -0.3419
      6 C5          0.4202   -1.1862    3.4020 C.3       1 <0>         0.2958
      7 O2          0.0101   -0.1910    2.4491 O.3       1 <0>        -0.3494
      8 C6          1.5571   -0.6343    4.2645 C.3       1 <0>         0.1099
      9 N1          2.6936   -0.2845    3.4089 N.pl3     1 <0>        -0.3778
     10 C7          3.3164    0.9050    3.3430 C.2       1 <0>         0.2580
     11 N2          4.2790    0.8110    2.4619 N.2       1 <0>        -0.5416
     12 C8          4.3016   -0.4175    1.9465 C.2       1 <0>         0.1922
     13 N3          3.3529   -1.1270    2.4989 N.2       1 <0>        -0.2996
     14 C9         -0.7459   -1.5551    4.2824 C.ar      1 <0>        -0.0893
     15 C10        -0.6702   -1.3572    5.6485 C.ar      1 <0>        -0.0820
     16 C11        -1.7392   -1.6953    6.4565 C.ar      1 <0>        -0.1047
     17 C12        -2.8862   -2.2317    5.8984 C.ar      1 <0>        -0.0120
     18 C13        -2.9628   -2.4294    4.5317 C.ar      1 <0>        -0.1058
     19 C14        -1.8941   -2.0863    3.7228 C.ar      1 <0>         0.0146
     20 Cl1        -1.9915   -2.3285    2.0065 Cl        1 <0>        -0.0399
     21 Cl2        -4.2287   -2.6568    6.9137 Cl        1 <0>        -0.0479
     22 H1          1.0039    1.9031    0.0027 H         1 <0>         0.0538
     23 H2         -0.5459    1.8868   -0.8726 H         1 <0>         0.0594
     24 H3         -0.5289    1.8773    0.9072 H         1 <0>         0.0610
     25 H4         -1.0205   -0.3814    0.0098 H         1 <0>         0.0733
     26 H5          0.5123   -0.3556   -0.8948 H         1 <0>         0.0807
     27 H6          1.7544   -0.1088    1.2808 H         1 <0>         0.0861
     28 H7         -0.1717   -2.4649    0.8834 H         1 <0>         0.0789
     29 H8          1.6163   -2.4511    0.7387 H         1 <0>         0.1005
     30 H9          1.2133    0.2546    4.7934 H         1 <0>         0.1221
     31 H10         1.8651   -1.3904    4.9867 H         1 <0>         0.1101
     32 H11         3.0656    1.7848    3.9169 H         1 <0>         0.2180
     33 H12         4.9943   -0.7710    1.1971 H         1 <0>         0.2169
     34 H13         0.2249   -0.9387    6.0845 H         1 <0>         0.1461
     35 H14        -1.6792   -1.5412    7.5238 H         1 <0>         0.1476
     36 H15        -3.8578   -2.8480    4.0957 H         1 <0>         0.1494
@<TRIPOS>BOND
     1    1    2 1
     2    1   22 1
     3    1   23 1
     4    1   24 1
     5    2    3 1
     6    2   25 1
     7    2   26 1
     8    3    7 1
     9    3    4 1
    10    3   27 1
    11    4    5 1
    12    4   28 1
    13    4   29 1
    14    5    6 1
    15    6    7 1
    16    6    8 1
    17    6   14 1
    18    8    9 1
    19    8   30 1
    20    8   31 1
    21    9   13 1
    22    9   10 1
    23   10   11 2
    24   10   32 1
    25   11   12 1
    26   12   13 2
    27   12   33 1
    28   14   19 ar
    29   14   15 ar
    30   15   16 ar
    31   15   34 1
    32   16   17 ar
    33   16   35 1
    34   17   18 ar
    35   17   21 1
    36   18   19 ar
    37   18   36 1
    38   19   20 1
@<TRIPOS>MOLECULE
CHEMBL270271
   36    38     0     0     0
SMALL
USER_CHARGES

@<TRIPOS>ATOM
      1 C1         -0.0187    1.5258    0.0104 C.3       1 <0>        -0.1443
      2 C2          0.0021   -0.0041    0.0020 C.3       1 <0>        -0.1329
      3 C3          0.7421   -0.5109    1.2415 C.3       1 <0>         0.0609
      4 C4          0.7823   -2.0594    1.2601 C.3       1 <0>         0.0207
      5 O1          0.8998   -2.3336    2.6769 O.3       1 <0>        -0.3543
      6 C5          0.1027   -1.3215    3.3146 C.3       1 <0>         0.2952
      7 O2          0.0081   -0.1892    2.4403 O.3       1 <0>        -0.3372
      8 C6         -1.2969   -1.8715    3.5966 C.3       1 <0>         0.1098
      9 N1         -1.9233   -2.2819    2.3375 N.pl3     1 <0>        -0.3775
     10 C7         -2.4410   -3.4889    2.0510 C.2       1 <0>         0.2585
     11 N2         -2.9037   -3.4523    0.8278 N.2       1 <0>        -0.5411
     12 C8         -2.7005   -2.2443    0.3037 C.2       1 <0>         0.1895
     13 N3         -2.1076   -1.4905    1.1919 N.2       1 <0>        -0.2954
     14 C9          0.7514   -0.9078    4.6104 C.ar      1 <0>        -0.0894
     15 C10         0.0687   -1.0563    5.8032 C.ar      1 <0>        -0.0819
     16 C11         0.6629   -0.6771    6.9919 C.ar      1 <0>        -0.1047
     17 C12         1.9420   -0.1491    6.9888 C.ar      1 <0>        -0.0120
     18 C13         2.6257   -0.0008    5.7957 C.ar      1 <0>        -0.1057
     19 C14         2.0321   -0.3850    4.6065 C.ar      1 <0>         0.0146
     20 Cl1         2.8918   -0.2048    3.1091 Cl        1 <0>        -0.0402
     21 Cl2         2.6881    0.3276    8.4821 Cl        1 <0>        -0.0477
     22 H1          1.0039    1.9031    0.0027 H         1 <0>         0.0480
     23 H2         -0.5459    1.8868   -0.8726 H         1 <0>         0.0552
     24 H3         -0.5289    1.8773    0.9072 H         1 <0>         0.0609
     25 H4         -1.0205   -0.3814    0.0098 H         1 <0>         0.1014
     26 H5          0.5123   -0.3556   -0.8948 H         1 <0>         0.0692
     27 H6          1.7492   -0.0962    1.2836 H         1 <0>         0.0869
     28 H7         -0.1395   -2.4786    0.8567 H         1 <0>         0.0780
     29 H8          1.6500   -2.4338    0.7169 H         1 <0>         0.1055
     30 H9         -1.2221   -2.7313    4.2623 H         1 <0>         0.1217
     31 H10        -1.9029   -1.0982    4.0687 H         1 <0>         0.1104
     32 H11        -2.4695   -4.3405    2.7146 H         1 <0>         0.2182
     33 H12        -2.9835   -1.9365   -0.6921 H         1 <0>         0.2166
     34 H13        -0.9296   -1.4683    5.8062 H         1 <0>         0.1462
     35 H14         0.1288   -0.7927    7.9235 H         1 <0>         0.1477
     36 H15         3.6240    0.4113    5.7928 H         1 <0>         0.1495
@<TRIPOS>BOND
     1    1    2 1
     2    1   22 1
     3    1   23 1
     4    1   24 1
     5    2    3 1
     6    2   25 1
     7    2   26 1
     8    3    7 1
     9    3    4 1
    10    3   27 1
    11    4    5 1
    12    4   28 1
    13    4   29 1
    14    5    6 1
    15    6    7 1
    16    6    8 1
    17    6   14 1
    18    8    9 1
    19    8   30 1
    20    8   31 1
    21    9   13 1
    22    9   10 1
    23   10   11 2
    24   10   32 1
    25   11   12 1
    26   12   13 2
    27   12   33 1
    28   14   19 ar
    29   14   15 ar
    30   15   16 ar
    31   15   34 1
    32   16   17 ar
    33   16   35 1
    34   17   18 ar
    35   17   21 1
    36   18   19 ar
    37   18   36 1
    38   19   20 1
@<TRIPOS>MOLECULE
CHEMBL270271
   36    38     0     0     0
SMALL
USER_CHARGES

@<TRIPOS>ATOM
      1 C1         -0.4037    1.2561    0.7537 C.3       1 <0>        -0.1486
      2 C2         -0.2087   -0.2524    0.5885 C.3       1 <0>        -0.1185
      3 C3          0.7660   -0.7602    1.6530 C.3       1 <0>         0.0407
      4 C4          0.9821   -2.2878    1.5132 C.3       1 <0>         0.0170
      5 O1          2.2997   -2.4524    2.0902 O.3       1 <0>        -0.3520
      6 C5          3.0236   -1.2747    1.6957 C.3       1 <0>         0.2949
      7 O2          2.0858   -0.2225    1.4334 O.3       1 <0>        -0.3241
      8 C6          3.8334   -1.5686    0.4314 C.3       1 <0>         0.1107
      9 N1          4.5164   -0.3484   -0.0056 N.pl3     1 <0>        -0.3756
     10 C7          5.8312   -0.2027   -0.2447 C.2       1 <0>         0.2425
     11 N2          6.0418    1.0342   -0.6155 N.2       1 <0>        -0.5355
     12 C8          4.8908    1.7053   -0.6251 C.2       1 <0>         0.1897
     13 N3          3.9268    0.8998   -0.2639 N.2       1 <0>        -0.2773
     14 C9          3.9552   -0.8579    2.8045 C.ar      1 <0>        -0.0859
     15 C10         5.3233   -0.9085    2.6133 C.ar      1 <0>        -0.0831
     16 C11         6.1783   -0.5264    3.6296 C.ar      1 <0>        -0.1039
     17 C12         5.6652   -0.0924    4.8392 C.ar      1 <0>        -0.0117
     18 C13         4.2964   -0.0410    5.0310 C.ar      1 <0>        -0.1069
     19 C14         3.4410   -0.4192    4.0115 C.ar      1 <0>         0.0131
     20 Cl1         1.7227   -0.3494    4.2492 Cl        1 <0>        -0.0409
     21 Cl2         6.7393    0.3871    6.1160 Cl        1 <0>        -0.0481
     22 H1          0.5553    1.7612    0.6387 H         1 <0>         0.0666
     23 H2         -1.0981    1.6179   -0.0047 H         1 <0>         0.0561
     24 H3         -0.8073    1.4640    1.7446 H         1 <0>         0.0513
     25 H4         -1.1678   -0.7574    0.7035 H         1 <0>         0.0775
     26 H5          0.1949   -0.4602   -0.4024 H         1 <0>         0.0723
     27 H6          0.4089   -0.5087    2.6517 H         1 <0>         0.0932
     28 H7          0.2350   -2.8412    2.0821 H         1 <0>         0.1151
     29 H8          0.9744   -2.5888    0.4656 H         1 <0>         0.0815
     30 H9          4.5716   -2.3418    0.6442 H         1 <0>         0.1211
     31 H10         3.1640   -1.9125   -0.3571 H         1 <0>         0.1034
     32 H11         6.5827   -0.9722   -0.1471 H         1 <0>         0.2167
     33 H12         4.7728    2.7451   -0.8921 H         1 <0>         0.2155
     34 H13         5.7243   -1.2472    1.6693 H         1 <0>         0.1380
     35 H14         7.2471   -0.5668    3.4798 H         1 <0>         0.1464
     36 H15         3.8955    0.2976    5.9750 H         1 <0>         0.1487
@<TRIPOS>BOND
     1    1    2 1
     2    1   22 1
     3    1   23 1
     4    1   24 1
     5    2    3 1
     6    2   25 1
     7    2   26 1
     8    3    7 1
     9    3    4 1
    10    3   27 1
    11    4    5 1
    12    4   28 1
    13    4   29 1
    14    5    6 1
    15    6    7 1
    16    6    8 1
    17    6   14 1
    18    8    9 1
    19    8   30 1
    20    8   31 1
    21    9   13 1
    22    9   10 1
    23   10   11 2
    24   10   32 1
    25   11   12 1
    26   12   13 2
    27   12   33 1
    28   14   19 ar
    29   14   15 ar
    30   15   16 ar
    31   15   34 1
    32   16   17 ar
    33   16   35 1
    34   17   18 ar
    35   17   21 1
    36   18   19 ar
    37   18   36 1
    38   19   20 1
@<TRIPOS>MOLECULE
CHEMBL270271
   36    38     0     0     0
SMALL
USER_CHARGES

@<TRIPOS>ATOM
      1 C1          0.6032    1.9621    0.0951 C.3       1 <0>        -0.1511
      2 C2          0.5604    0.4507   -0.1393 C.3       1 <0>        -0.1162
      3 C3          1.0651   -0.2737    1.1102 C.3       1 <0>         0.0464
      4 C4          1.0651   -1.8084    0.8996 C.3       1 <0>         0.0139
      5 O1          2.0926   -2.2619    1.8039 O.3       1 <0>        -0.3311
      6 C5          2.9483   -1.1432    2.0720 C.3       1 <0>         0.2958
      7 O2          2.4709   -0.0072    1.3316 O.3       1 <0>        -0.3464
      8 C6          2.9272   -0.8270    3.5688 C.3       1 <0>         0.1107
      9 N1          3.3357   -2.0137    4.3244 N.pl3     1 <0>        -0.3761
     10 C7          4.3184   -2.0879    5.2387 C.2       1 <0>         0.2428
     11 N2          4.3672   -3.3173    5.6834 N.2       1 <0>        -0.5356
     12 C8          3.4355   -4.0538    5.0794 C.2       1 <0>         0.1907
     13 N3          2.7745   -3.2985    4.2420 N.2       1 <0>        -0.2795
     14 C9          4.3566   -1.4695    1.6464 C.ar      1 <0>        -0.0860
     15 C10         5.3971   -1.3468    2.5483 C.ar      1 <0>        -0.0834
     16 C11         6.6888   -1.6459    2.1587 C.ar      1 <0>        -0.1039
     17 C12         6.9415   -2.0688    0.8656 C.ar      1 <0>        -0.0118
     18 C13         5.9008   -2.1922   -0.0371 C.ar      1 <0>        -0.1070
     19 C14         4.6072   -1.8973    0.3549 C.ar      1 <0>         0.0131
     20 Cl1         3.2996   -2.0577   -0.7756 Cl        1 <0>        -0.0408
     21 Cl2         8.5643   -2.4439    0.3763 Cl        1 <0>        -0.0480
     22 H1          1.6282    2.2686    0.3037 H         1 <0>         0.0624
     23 H2          0.2436    2.4781   -0.7951 H         1 <0>         0.0597
     24 H3         -0.0318    2.2162    0.9438 H         1 <0>         0.0555
     25 H4         -0.4646    0.1443   -0.3479 H         1 <0>         0.0835
     26 H5          1.1955    0.1966   -0.9880 H         1 <0>         0.0751
     27 H6          0.4737    0.0009    1.9837 H         1 <0>         0.0894
     28 H7          0.0988   -2.2343    1.1698 H         1 <0>         0.1030
     29 H8          1.3218   -2.0559   -0.1304 H         1 <0>         0.0837
     30 H9          3.6164   -0.0086    3.7770 H         1 <0>         0.1216
     31 H10         1.9190   -0.5371    3.8647 H         1 <0>         0.1036
     32 H11         4.9567   -1.2746    5.5511 H         1 <0>         0.2171
     33 H12         3.2531   -5.1035    5.2562 H         1 <0>         0.2163
     34 H13         5.2004   -1.0167    3.5576 H         1 <0>         0.1379
     35 H14         7.5014   -1.5491    2.8636 H         1 <0>         0.1464
     36 H15         6.0975   -2.5223   -1.0464 H         1 <0>         0.1487
@<TRIPOS>BOND
     1    1    2 1
     2    1   22 1
     3    1   23 1
     4    1   24 1
     5    2    3 1
     6    2   25 1
     7    2   26 1
     8    3    7 1
     9    3    4 1
    10    3   27 1
    11    4    5 1
    12    4   28 1
    13    4   29 1
    14    5    6 1
    15    6    7 1
    16    6    8 1
    17    6   14 1
    18    8    9 1
    19    8   30 1
    20    8   31 1
    21    9   13 1
    22    9   10 1
    23   10   11 2
    24   10   32 1
    25   11   12 1
    26   12   13 2
    27   12   33 1
    28   14   19 ar
    29   14   15 ar
    30   15   16 ar
    31   15   34 1
    32   16   17 ar
    33   16   35 1
    34   17   18 ar
    35   17   21 1
    36   18   19 ar
    37   18   36 1
    38   19   20 1
@<TRIPOS>MOLECULE
CHEMBL549930
   65    68     0     0     0
SMALL
USER_CHARGES

@<TRIPOS>ATOM
      1 C1         -0.0187    1.5258    0.0104 C.3       1 <0>        -0.1699
      2 C2          0.0021   -0.0041    0.0020 C.3       1 <0>         0.1450
      3 C3          0.7421   -0.5109    1.2415 C.3       1 <0>         0.0812
      4 N1          0.6591   -1.9725    1.2962 N.pl3     1 <0>        -0.4048
      5 C4         -0.3202   -2.7082    1.9072 C.2       1 <0>         0.0309
      6 C5         -0.0102   -4.0047    1.7160 C.2       1 <0>         0.0073
      7 N2          1.1273   -4.0592    1.0075 N.pl3     1 <0>        -0.4734
      8 C6          1.5314   -2.8457    0.7481 C.cat     1 <0>         0.2785
      9 N3          0.6878   -0.4765   -1.2033 N.am      1 <0>        -0.7506
     10 C7          0.0062   -0.6081   -2.3585 C.2       1 <0>         0.7081
     11 O1         -1.1778   -0.3348   -2.4004 O.2       1 <0>        -0.5681
     12 N4          0.6370   -1.0428   -3.4674 N.am      1 <0>        -0.7408
     13 C8         -0.1039   -1.1859   -4.7231 C.3       1 <0>         0.1535
     14 C9         -0.7850   -2.5569   -4.7625 C.3       1 <0>        -0.1568
     15 C10        -1.4906   -2.7313   -6.1090 C.3       1 <0>        -0.0045
     16 N5         -0.5082   -2.6400   -7.1958 N.4       1 <0>        -0.3829
     17 C11         0.0974   -1.3030   -7.2087 C.3       1 <0>        -0.0044
     18 C12         0.8641   -1.0736   -5.9045 C.3       1 <0>        -0.1537
     19 C13        -1.1771   -2.8853   -8.4804 C.3       1 <0>         0.0794
     20 C14        -0.1510   -2.9137   -9.5838 C.2       1 <0>        -0.2346
     21 C15         0.2935   -1.8088  -10.3374 C.2       1 <0>        -0.1744
     22 C16         1.2098   -2.2612  -11.2173 C.2       1 <0>         0.0121
     23 N6          1.3481   -3.6076  -11.0347 N.pl3     1 <0>        -0.3826
     24 C17         0.5142   -3.9998  -10.0267 C.2       1 <0>         0.0392
     25 C18         2.2072   -4.4467  -11.7582 C.ar      1 <0>         0.1463
     26 C19         2.2501   -5.8059  -11.4786 C.ar      1 <0>        -0.1349
     27 C20         3.0970   -6.6302  -12.1934 C.ar      1 <0>        -0.0393
     28 C21         3.9017   -6.1029  -13.1867 C.ar      1 <0>        -0.1782
     29 C22         3.8614   -4.7495  -13.4672 C.ar      1 <0>        -0.0366
     30 C23         3.0123   -3.9211  -12.7596 C.ar      1 <0>        -0.1291
     31 C24         4.8246   -7.0050  -13.9648 C.3       1 <0>         0.5080
     32 F1          4.1561   -7.4964  -15.0912 F         1 <0>        -0.1692
     33 F2          5.9515   -6.2816  -14.3700 F         1 <0>        -0.1712
     34 F3          5.2231   -8.0743  -13.1555 F         1 <0>        -0.1728
     35 H1          1.0039    1.9031    0.0027 H         1 <0>         0.0699
     36 H2         -0.5459    1.8868   -0.8726 H         1 <0>         0.0807
     37 H3         -0.5289    1.8773    0.9072 H         1 <0>         0.0824
     38 H4         -1.0205   -0.3814    0.0098 H         1 <0>         0.1090
     39 H5          1.7879   -0.2080    1.1895 H         1 <0>         0.1297
     40 H6          0.2852   -0.0874    2.1360 H         1 <0>         0.1466
     41 H7         -1.1767   -2.3229    2.4405 H         1 <0>         0.2260
     42 H8         -0.5781   -4.8520    2.0709 H         1 <0>         0.2259
     43 H9          2.4179   -2.5833    0.1899 H         1 <0>         0.2538
     44 H10         1.6324   -0.6946   -1.1699 H         1 <0>         0.3945
     45 H11         1.5816   -1.2609   -3.4340 H         1 <0>         0.4011
     46 H12        -0.8571   -0.4012   -4.7933 H         1 <0>         0.1090
     47 H13        -0.0358   -3.3391   -4.6401 H         1 <0>         0.0861
     48 H14        -1.5163   -2.6232   -3.9570 H         1 <0>         0.1134
     49 H15        -1.9768   -3.7064   -6.1403 H         1 <0>         0.1351
     50 H16        -2.2397   -1.9488   -6.2302 H         1 <0>         0.1343
     51 H17         0.7836   -1.2236   -8.0519 H         1 <0>         0.1426
     52 H18        -0.6855   -0.5509   -7.3065 H         1 <0>         0.1329
     53 H19         1.3115   -0.0797   -5.9153 H         1 <0>         0.1188
     54 H20         1.6475   -1.8251   -5.8058 H         1 <0>         0.0913
     55 H21        -1.6965   -3.8429   -8.4426 H         1 <0>         0.1344
     56 H22        -1.8963   -2.0893   -8.6735 H         1 <0>         0.1374
     57 H23        -0.0392   -0.7869  -10.2303 H         1 <0>         0.1544
     58 H24         1.7421   -1.6624  -11.9415 H         1 <0>         0.1794
     59 H25         0.4048   -5.0064   -9.6509 H         1 <0>         0.1757
     60 H26         1.6221   -6.2182  -10.7027 H         1 <0>         0.1418
     61 H27         3.1311   -7.6875  -11.9761 H         1 <0>         0.1522
     62 H28         4.4915   -4.3403  -14.2430 H         1 <0>         0.1541
     63 H29         2.9777   -2.8649  -12.9823 H         1 <0>         0.1469
     64 H30         0.2118   -3.3329   -7.0561 H         1 <0>         0.4189
     65 H31         1.5768   -4.8723    0.7287 H         1 <0>         0.4652
@<TRIPOS>BOND
     1    1    2 1
     2    1   35 1
     3    1   36 1
     4    1   37 1
     5    2    3 1
     6    2    9 1
     7    2   38 1
     8    3    4 1
     9    3   39 1
    10    3   40 1
    11    4    8 1
    12    4    5 1
    13    5    6 2
    14    5   41 1
    15    6    7 1
    16    6   42 1
    17    7    8 2
    18    7   65 1
    19    8   43 1
    20    9   10 am
    21    9   44 1
    22   10   11 2
    23   10   12 am
    24   12   13 1
    25   12   45 1
    26   13   18 1
    27   13   14 1
    28   13   46 1
    29   14   15 1
    30   14   47 1
    31   14   48 1
    32   15   16 1
    33   15   49 1
    34   15   50 1
    35   16   17 1
    36   16   19 1
    37   16   64 1
    38   17   18 1
    39   17   51 1
    40   17   52 1
    41   18   53 1
    42   18   54 1
    43   19   20 1
    44   19   55 1
    45   19   56 1
    46   20   24 2
    47   20   21 1
    48   21   22 2
    49   21   57 1
    50   22   23 1
    51   22   58 1
    52   23   24 1
    53   23   25 1
    54   24   59 1
    55   25   30 ar
    56   25   26 ar
    57   26   27 ar
    58   26   60 1
    59   27   28 ar
    60   27   61 1
    61   28   29 ar
    62   28   31 1
    63   29   30 ar
    64   29   62 1
    65   30   63 1
    66   31   32 1
    67   31   33 1
    68   31   34 1
@<TRIPOS>MOLECULE
CHEMBL549930
   64    67     0     0     0
SMALL
USER_CHARGES

@<TRIPOS>ATOM
      1 C1         -0.0187    1.5258    0.0104 C.3       1 <0>        -0.1652
      2 C2          0.0021   -0.0041    0.0020 C.3       1 <0>         0.1470
      3 C3         -1.4333   -0.5336    0.0129 C.3       1 <0>         0.0935
      4 N1         -1.4164   -1.9929   -0.1155 N.pl3     1 <0>        -0.4586
      5 C4         -1.4452   -2.7059   -1.2836 C.2       1 <0>        -0.0509
      6 C5         -1.4141   -4.0091   -0.9455 C.2       1 <0>        -0.0273
      7 N2         -1.3676   -4.0896    0.3925 N.2       1 <0>        -0.4917
      8 C6         -1.3636   -2.8858    0.8963 C.2       1 <0>         0.1771
      9 N3          0.7106   -0.4894    1.1889 N.am      1 <0>        -0.7358
     10 C7          2.0538   -0.5998    1.1737 C.2       1 <0>         0.7110
     11 O1          2.6774   -0.2967    0.1749 O.2       1 <0>        -0.5811
     12 N4          2.7056   -1.0463    2.2656 N.am      1 <0>        -0.7437
     13 C8          4.1656   -1.1663    2.2490 C.3       1 <0>         0.1571
     14 C9          4.5614   -2.5197    1.6516 C.3       1 <0>        -0.1606
     15 C10         6.0829   -2.6716    1.7103 C.3       1 <0>        -0.0027
     16 N5          6.5318   -2.6012    3.1061 N.4       1 <0>        -0.3832
     17 C11         6.2195   -1.2797    3.6636 C.3       1 <0>        -0.0023
     18 C12         4.7032   -1.0742    3.6800 C.3       1 <0>        -0.1542
     19 C13         7.9824   -2.8252    3.1643 C.3       1 <0>         0.0790
     20 C14         8.4256   -2.8754    4.6038 C.2       1 <0>        -0.2307
     21 C15         8.8389   -1.7794    5.3875 C.2       1 <0>        -0.1729
     22 C16         9.1501   -2.2516    6.6117 C.2       1 <0>         0.0094
     23 N6          8.9438   -3.6016    6.6133 N.pl3     1 <0>        -0.3847
     24 C17         8.4937   -3.9763    5.3795 C.2       1 <0>         0.0387
     25 C18         9.1542   -4.4595    7.7020 C.ar      1 <0>         0.1504
     26 C19         8.9118   -5.8203    7.5722 C.ar      1 <0>        -0.1350
     27 C20         9.1205   -6.6631    8.6464 C.ar      1 <0>        -0.0387
     28 C21         9.5704   -6.1527    9.8502 C.ar      1 <0>        -0.1813
     29 C22         9.8123   -4.7977    9.9826 C.ar      1 <0>        -0.0374
     30 C23         9.6109   -3.9508    8.9102 C.ar      1 <0>        -0.1308
     31 C24         9.7970   -7.0749   11.0203 C.3       1 <0>         0.5085
     32 F1         11.1143   -7.5455   10.9948 F         1 <0>        -0.1707
     33 F2          9.5736   -6.3787   12.2130 F         1 <0>        -0.1721
     34 F3          8.9137   -8.1568   10.9394 F         1 <0>        -0.1727
     35 H1          1.0039    1.9031    0.0027 H         1 <0>         0.0702
     36 H2         -0.5459    1.8868   -0.8726 H         1 <0>         0.0751
     37 H3         -0.5289    1.8773    0.9072 H         1 <0>         0.0632
     38 H4          0.5123   -0.3556   -0.8948 H         1 <0>         0.0989
     39 H5         -1.9156   -0.2570    0.9504 H         1 <0>         0.1021
     40 H6         -1.9862   -0.1019   -0.8214 H         1 <0>         0.1141
     41 H7         -1.4855   -2.3011   -2.2841 H         1 <0>         0.1756
     42 H8         -1.4248   -4.8431   -1.6316 H         1 <0>         0.1704
     43 H9         -1.3268   -2.6437    1.9481 H         1 <0>         0.1970
     44 H10         0.2131   -0.7312    1.9857 H         1 <0>         0.3960
     45 H11         2.2081   -1.2881    3.0624 H         1 <0>         0.4012
     46 H12         4.5906   -0.3627    1.6476 H         1 <0>         0.1055
     47 H13         4.0933   -3.3209    2.2234 H         1 <0>         0.0888
     48 H14         4.2304   -2.5704    0.6143 H         1 <0>         0.1165
     49 H15         6.3682   -3.6340    1.2856 H         1 <0>         0.1338
     50 H16         6.5500   -1.8701    1.1380 H         1 <0>         0.1324
     51 H17         6.6055   -1.2146    4.6809 H         1 <0>         0.1392
     52 H18         6.6837   -0.5079    3.0497 H         1 <0>         0.1310
     53 H19         4.4735   -0.0919    4.0926 H         1 <0>         0.1171
     54 H20         4.2380   -1.8455    4.2939 H         1 <0>         0.0917
     55 H21         8.2241   -3.7695    2.6765 H         1 <0>         0.1336
     56 H22         8.4966   -2.0107    2.6540 H         1 <0>         0.1361
     57 H23         8.8966   -0.7499    5.0663 H         1 <0>         0.1542
     58 H24         9.5019   -1.6638    7.4466 H         1 <0>         0.1784
     59 H25         8.2386   -4.9811    5.0767 H         1 <0>         0.1764
     60 H26         8.5600   -6.2194    6.6323 H         1 <0>         0.1430
     61 H27         8.9317   -7.7217    8.5461 H         1 <0>         0.1518
     62 H28        10.1630   -4.4018   10.9243 H         1 <0>         0.1527
     63 H29         9.8047   -2.8933    9.0128 H         1 <0>         0.1463
     64 H30         6.0618   -3.3124    3.6458 H         1 <0>         0.4200
@<TRIPOS>BOND
     1    1    2 1
     2    1   35 1
     3    1   36 1
     4    1   37 1
     5    2    3 1
     6    2    9 1
     7    2   38 1
     8    3    4 1
     9    3   39 1
    10    3   40 1
    11    4    8 1
    12    4    5 1
    13    5    6 2
    14    5   41 1
    15    6    7 1
    16    6   42 1
    17    7    8 2
    18    8   43 1
    19    9   10 am
    20    9   44 1
    21   10   11 2
    22   10   12 am
    23   12   13 1
    24   12   45 1
    25   13   18 1
    26   13   14 1
    27   13   46 1
    28   14   15 1
    29   14   47 1
    30   14   48 1
    31   15   16 1
    32   15   49 1
    33   15   50 1
    34   16   17 1
    35   16   19 1
    36   16   64 1
    37   17   18 1
    38   17   51 1
    39   17   52 1
    40   18   53 1
    41   18   54 1
    42   19   20 1
    43   19   55 1
    44   19   56 1
    45   20   24 2
    46   20   21 1
    47   21   22 2
    48   21   57 1
    49   22   23 1
    50   22   58 1
    51   23   24 1
    52   23   25 1
    53   24   59 1
    54   25   30 ar
    55   25   26 ar
    56   26   27 ar
    57   26   60 1
    58   27   28 ar
    59   27   61 1
    60   28   29 ar
    61   28   31 1
    62   29   30 ar
    63   29   62 1
    64   30   63 1
    65   31   32 1
    66   31   33 1
    67   31   34 1
@<TRIPOS>MOLECULE
CHEMBL549930
   65    68     0     0     0
SMALL
USER_CHARGES

@<TRIPOS>ATOM
      1 C1         -0.0187    1.5258    0.0104 C.3       1 <0>        -0.1695
      2 C2          0.0021   -0.0041    0.0020 C.3       1 <0>         0.1454
      3 C3          0.7182   -0.4975   -1.2568 C.3       1 <0>         0.0814
      4 N1          0.6341   -1.9585   -1.3255 N.pl3     1 <0>        -0.4090
      5 C4          1.5254   -2.8494   -0.7914 C.2       1 <0>         0.0197
      6 C5          1.0679   -4.0816   -1.0846 C.2       1 <0>         0.0082
      7 N2         -0.0717   -3.9467   -1.7789 N.pl3     1 <0>        -0.4746
      8 C6         -0.3405   -2.6778   -1.9227 C.cat     1 <0>         0.2954
      9 N3          0.7106   -0.4894    1.1889 N.am      1 <0>        -0.7481
     10 C7          0.0512   -0.6335    2.3554 C.2       1 <0>         0.7092
     11 O1         -1.1318   -0.3607    2.4228 O.2       1 <0>        -0.5726
     12 N4          0.7031   -1.0799    3.4473 N.am      1 <0>        -0.7405
     13 C8         -0.0137   -1.2366    4.7154 C.3       1 <0>         0.1552
     14 C9         -0.0293    0.0997    5.4633 C.3       1 <0>        -0.1604
     15 C10        -0.7092   -0.0898    6.8209 C.3       1 <0>        -0.0040
     16 N5          0.0300   -1.0841    7.6079 N.4       1 <0>        -0.3834
     17 C11        -0.0120   -2.3860    6.9314 C.3       1 <0>        -0.0034
     18 C12         0.6948   -2.2849    5.5780 C.3       1 <0>        -0.1532
     19 C13        -0.5804   -1.2054    8.9386 C.3       1 <0>         0.0795
     20 C14         0.2486   -2.1331    9.7889 C.2       1 <0>        -0.2346
     21 C15         0.0952   -3.5304    9.8915 C.2       1 <0>        -0.1751
     22 C16         1.0315   -3.9783   10.7524 C.2       1 <0>         0.0114
     23 N6          1.7592   -2.9072   11.1864 N.pl3     1 <0>        -0.3826
     24 C17         1.2768   -1.7791   10.5864 C.2       1 <0>         0.0404
     25 C18         2.8273   -2.9578   12.0932 C.ar      1 <0>         0.1461
     26 C19         3.4842   -1.7911   12.4600 C.ar      1 <0>        -0.1342
     27 C20         4.5358   -1.8441   13.3539 C.ar      1 <0>        -0.0388
     28 C21         4.9345   -3.0577   13.8834 C.ar      1 <0>        -0.1782
     29 C22         4.2824   -4.2215   13.5196 C.ar      1 <0>        -0.0371
     30 C23         3.2264   -4.1741   12.6305 C.ar      1 <0>        -0.1296
     31 C24         6.0822   -3.1120   14.8585 C.3       1 <0>         0.5080
     32 F1          5.5940   -2.9690   16.1617 F         1 <0>        -0.1694
     33 F2          6.7381   -4.3419   14.7386 F         1 <0>        -0.1715
     34 F3          6.9799   -2.0757   14.5803 F         1 <0>        -0.1724
     35 H1          1.0039    1.9031    0.0027 H         1 <0>         0.0697
     36 H2         -0.5459    1.8868   -0.8726 H         1 <0>         0.0819
     37 H3         -0.5289    1.8773    0.9072 H         1 <0>         0.0797
     38 H4         -1.0205   -0.3814    0.0098 H         1 <0>         0.1063
     39 H5          0.2444   -0.0644   -2.1377 H         1 <0>         0.1433
     40 H6          1.7648   -0.1951   -1.2215 H         1 <0>         0.1320
     41 H7          2.4233   -2.6102   -0.2409 H         1 <0>         0.2182
     42 H8          1.5365   -5.0148   -0.8091 H         1 <0>         0.2235
     43 H9         -1.1987   -2.2703   -2.4364 H         1 <0>         0.2620
     44 H10         1.6544   -0.7070    1.1351 H         1 <0>         0.3973
     45 H11         1.6468   -1.2976    3.3936 H         1 <0>         0.4021
     46 H12        -1.0367   -1.5574    4.5186 H         1 <0>         0.1066
     47 H13         0.9937    0.4446    5.6135 H         1 <0>         0.0897
     48 H14        -0.5807    0.8370    4.8798 H         1 <0>         0.1165
     49 H15        -0.7222    0.8598    7.3560 H         1 <0>         0.1363
     50 H16        -1.7322   -0.4344    6.6695 H         1 <0>         0.1330
     51 H17         0.4898   -3.1317    7.5480 H         1 <0>         0.1417
     52 H18        -1.0498   -2.6818    6.7777 H         1 <0>         0.1311
     53 H19         0.6609   -3.2521    5.0765 H         1 <0>         0.1152
     54 H20         1.7328   -1.9895    5.7307 H         1 <0>         0.0927
     55 H21        -0.6243   -0.2232    9.4091 H         1 <0>         0.1349
     56 H22        -1.5891   -1.6066    8.8404 H         1 <0>         0.1366
     57 H23        -0.6383   -4.1322    9.3756 H         1 <0>         0.1534
     58 H24         1.1801   -5.0064   11.0480 H         1 <0>         0.1788
     59 H25         1.6525   -0.7765   10.7278 H         1 <0>         0.1764
     60 H26         3.1735   -0.8430   12.0465 H         1 <0>         0.1425
     61 H27         5.0474   -0.9368   13.6393 H         1 <0>         0.1526
     62 H28         4.5964   -5.1680   13.9342 H         1 <0>         0.1537
     63 H29         2.7144   -5.0828   12.3504 H         1 <0>         0.1463
     64 H30         0.9896   -0.7880    7.7060 H         1 <0>         0.4204
     65 H31        -0.6128   -4.6771   -2.1175 H         1 <0>         0.4675
@<TRIPOS>BOND
     1    1    2 1
     2    1   35 1
     3    1   36 1
     4    1   37 1
     5    2    3 1
     6    2    9 1
     7    2   38 1
     8    3    4 1
     9    3   39 1
    10    3   40 1
    11    4    8 1
    12    4    5 1
    13    5    6 2
    14    5   41 1
    15    6    7 1
    16    6   42 1
    17    7    8 2
    18    7   65 1
    19    8   43 1
    20    9   10 am
    21    9   44 1
    22   10   11 2
    23   10   12 am
    24   12   13 1
    25   12   45 1
    26   13   18 1
    27   13   14 1
    28   13   46 1
    29   14   15 1
    30   14   47 1
    31   14   48 1
    32   15   16 1
    33   15   49 1
    34   15   50 1
    35   16   17 1
    36   16   19 1
    37   16   64 1
    38   17   18 1
    39   17   51 1
    40   17   52 1
    41   18   53 1
    42   18   54 1
    43   19   20 1
    44   19   55 1
    45   19   56 1
    46   20   24 2
    47   20   21 1
    48   21   22 2
    49   21   57 1
    50   22   23 1
    51   22   58 1
    52   23   24 1
    53   23   25 1
    54   24   59 1
    55   25   30 ar
    56   25   26 ar
    57   26   27 ar
    58   26   60 1
    59   27   28 ar
    60   27   61 1
    61   28   29 ar
    62   28   31 1
    63   29   30 ar
    64   29   62 1
    65   30   63 1
    66   31   32 1
    67   31   33 1
    68   31   34 1
@<TRIPOS>MOLECULE
CHEMBL549930
   64    67     0     0     0
SMALL
USER_CHARGES

@<TRIPOS>ATOM
      1 C1         -0.0187    1.5258    0.0104 C.3       1 <0>        -0.1644
      2 C2          0.0021   -0.0041    0.0020 C.3       1 <0>         0.1459
      3 C3          0.7421   -0.5109    1.2415 C.3       1 <0>         0.0940
      4 N1          0.8664   -1.9690    1.1738 N.pl3     1 <0>        -0.4595
      5 C4         -0.0275   -2.8840    1.6612 C.2       1 <0>        -0.0609
      6 C5          0.4742   -4.1032    1.3868 C.2       1 <0>        -0.0245
      7 N2          1.6426   -3.9373    0.7494 N.2       1 <0>        -0.4915
      8 C6          1.8815   -2.6616    0.6138 C.2       1 <0>         0.1879
      9 N3         -1.3723   -0.5112    0.0124 N.am      1 <0>        -0.7345
     10 C7         -2.0508   -0.6427   -1.1446 C.2       1 <0>         0.7105
     11 O1         -1.5223   -0.3406   -2.1971 O.2       1 <0>        -0.5809
     12 N4         -3.3153   -1.1092   -1.1351 N.am      1 <0>        -0.7439
     13 C8         -4.0528   -1.2522   -2.3928 C.3       1 <0>         0.1566
     14 C9         -4.7136    0.0814   -2.7534 C.3       1 <0>        -0.1600
     15 C10        -5.5466   -0.0957   -4.0247 C.3       1 <0>        -0.0030
     16 N5         -6.5821   -1.1110   -3.7980 N.4       1 <0>        -0.3830
     17 C11        -5.9550   -2.4091   -3.5222 C.3       1 <0>        -0.0025
     18 C12        -5.1376   -2.3211   -2.2316 C.3       1 <0>        -0.1541
     19 C13        -7.4276   -1.2216   -4.9942 C.3       1 <0>         0.0791
     20 C14        -8.5638   -2.1729   -4.7201 C.2       1 <0>        -0.2307
     21 C15        -8.5543   -3.5662   -4.9321 C.2       1 <0>        -0.1727
     22 C16        -9.7608   -4.0404   -4.5608 C.2       1 <0>         0.0097
     23 N6        -10.5170   -2.9894   -4.1263 N.pl3     1 <0>        -0.3847
     24 C17        -9.7738   -1.8476   -4.2215 C.2       1 <0>         0.0383
     25 C18       -11.8352   -3.0701   -3.6559 C.ar      1 <0>         0.1505
     26 C19       -12.4993   -1.9215   -3.2472 C.ar      1 <0>        -0.1353
     27 C20       -13.7982   -2.0040   -2.7847 C.ar      1 <0>        -0.0389
     28 C21       -14.4371   -3.2290   -2.7285 C.ar      1 <0>        -0.1813
     29 C22       -13.7780   -4.3748   -3.1345 C.ar      1 <0>        -0.0372
     30 C23       -12.4810   -4.2978   -3.6033 C.ar      1 <0>        -0.1307
     31 C24       -15.8542   -3.3156   -2.2234 C.3       1 <0>         0.5085
     32 F1        -16.7412   -3.1649   -3.2947 F         1 <0>        -0.1706
     33 F2        -16.0590   -4.5612   -1.6202 F         1 <0>        -0.1720
     34 F3        -16.0781   -2.3012   -1.2863 F         1 <0>        -0.1728
     35 H1          1.0039    1.9031    0.0027 H         1 <0>         0.0758
     36 H2         -0.5459    1.8868   -0.8726 H         1 <0>         0.0692
     37 H3         -0.5289    1.8773    0.9072 H         1 <0>         0.0622
     38 H4          0.5123   -0.3556   -0.8948 H         1 <0>         0.0995
     39 H5          1.7350   -0.0630    1.2804 H         1 <0>         0.1160
     40 H6          0.1838   -0.2350    2.1361 H         1 <0>         0.0995
     41 H7         -0.9565   -2.6693    2.1685 H         1 <0>         0.1682
     42 H8          0.0160   -5.0489    1.6364 H         1 <0>         0.1680
     43 H9          2.7487   -2.2309    0.1354 H         1 <0>         0.2051
     44 H10        -1.7940   -0.7522    0.8520 H         1 <0>         0.3961
     45 H11        -3.7369   -1.3503   -0.2954 H         1 <0>         0.4007
     46 H12        -3.3662   -1.5466   -3.1865 H         1 <0>         0.1055
     47 H13        -5.3603    0.4000   -1.9359 H         1 <0>         0.0880
     48 H14        -3.9442    0.8343   -2.9244 H         1 <0>         0.1167
     49 H15        -6.0183    0.8520   -4.2844 H         1 <0>         0.1337
     50 H16        -4.8989   -0.4141   -4.8416 H         1 <0>         0.1327
     51 H17        -6.7281   -3.1694   -3.4109 H         1 <0>         0.1394
     52 H18        -5.2986   -2.6782   -4.3498 H         1 <0>         0.1313
     53 H19        -4.6713   -3.2854   -2.0295 H         1 <0>         0.1176
     54 H20        -5.7931   -2.0523   -1.4032 H         1 <0>         0.0912
     55 H21        -7.8284   -0.2403   -5.2478 H         1 <0>         0.1334
     56 H22        -6.8322   -1.5971   -5.8265 H         1 <0>         0.1363
     57 H23        -7.7315   -4.1475   -5.3213 H         1 <0>         0.1545
     58 H24       -10.0750   -5.0729   -4.6006 H         1 <0>         0.1785
     59 H25       -10.0997   -0.8552   -3.9469 H         1 <0>         0.1762
     60 H26       -12.0007   -0.9644   -3.2906 H         1 <0>         0.1427
     61 H27       -14.3152   -1.1108   -2.4663 H         1 <0>         0.1517
     62 H28       -14.2793   -5.3304   -3.0888 H         1 <0>         0.1528
     63 H29       -11.9685   -5.1924   -3.9248 H         1 <0>         0.1465
     64 H30        -7.1512   -0.8395   -3.0103 H         1 <0>         0.4196
@<TRIPOS>BOND
     1    1    2 1
     2    1   35 1
     3    1   36 1
     4    1   37 1
     5    2    3 1
     6    2    9 1
     7    2   38 1
     8    3    4 1
     9    3   39 1
    10    3   40 1
    11    4    8 1
    12    4    5 1
    13    5    6 2
    14    5   41 1
    15    6    7 1
    16    6   42 1
    17    7    8 2
    18    8   43 1
    19    9   10 am
    20    9   44 1
    21   10   11 2
    22   10   12 am
    23   12   13 1
    24   12   45 1
    25   13   18 1
    26   13   14 1
    27   13   46 1
    28   14   15 1
    29   14   47 1
    30   14   48 1
    31   15   16 1
    32   15   49 1
    33   15   50 1
    34   16   17 1
    35   16   19 1
    36   16   64 1
    37   17   18 1
    38   17   51 1
    39   17   52 1
    40   18   53 1
    41   18   54 1
    42   19   20 1
    43   19   55 1
    44   19   56 1
    45   20   24 2
    46   20   21 1
    47   21   22 2
    48   21   57 1
    49   22   23 1
    50   22   58 1
    51   23   24 1
    52   23   25 1
    53   24   59 1
    54   25   30 ar
    55   25   26 ar
    56   26   27 ar
    57   26   60 1
    58   27   28 ar
    59   27   61 1
    60   28   29 ar
    61   28   31 1
    62   29   30 ar
    63   29   62 1
    64   30   63 1
    65   31   32 1
    66   31   33 1
    67   31   34 1
@<TRIPOS>MOLECULE
CHEMBL570596
   34    36     0     0     0
SMALL
USER_CHARGES

@<TRIPOS>ATOM
      1 C1         -0.0184    1.5028    0.0103 C.3       1 <0>        -0.1111
      2 C2          0.0021   -0.0041    0.0020 C.ar      1 <0>        -0.1037
      3 C3          0.0058   -0.6859   -1.1964 C.ar      1 <0>        -0.0925
      4 C4          0.0252   -2.0819   -1.2029 C.ar      1 <0>        -0.0123
      5 C5          0.0408   -2.7818    0.0056 C.ar      1 <0>        -0.0870
      6 C6          0.0369   -2.0924    1.1991 C.ar      1 <0>        -0.1351
      7 C7          0.0230   -0.7036    1.2010 C.ar      1 <0>         0.1103
      8 O1          0.0249   -0.0277    2.3799 O.3       1 <0>        -0.4939
      9 C8          0.0287   -2.8168   -2.4846 C.2       1 <0>        -0.1064
     10 C9          0.0408   -4.1709   -2.7029 C.2       1 <0>        -0.1451
     11 C10         0.0413   -4.6342   -3.9952 C.2       1 <0>        -0.1384
     12 C11         0.0297   -3.7277   -5.0241 C.2       1 <0>        -0.1146
     13 S1          0.0104   -2.1716   -4.1492 S.3       1 <0>         0.0844
     14 C12         0.0281   -3.9750   -6.4806 C.ar      1 <0>         0.0112
     15 C13         0.0336   -5.2834   -6.9694 C.ar      1 <0>        -0.1081
     16 C14         0.0321   -5.5105   -8.3301 C.ar      1 <0>        -0.0963
     17 C15         0.0256   -4.4461   -9.2132 C.ar      1 <0>        -0.1401
     18 C16         0.0201   -3.1421   -8.7368 C.ar      1 <0>         0.1131
     19 C17         0.0153   -2.9025   -7.3730 C.ar      1 <0>        -0.1356
     20 O2          0.0142   -2.1002   -9.6094 O.3       1 <0>        -0.4971
     21 H1          1.0042    1.8801    0.0026 H         1 <0>         0.0751
     22 H2         -0.5455    1.8639   -0.8728 H         1 <0>         0.0678
     23 H3         -0.5286    1.8543    0.9071 H         1 <0>         0.0704
     24 H4         -0.0067   -0.1409   -2.1287 H         1 <0>         0.1281
     25 H5          0.0554   -3.8617    0.0049 H         1 <0>         0.1319
     26 H6          0.0490   -2.6328    2.1341 H         1 <0>         0.1355
     27 H7         -0.8578    0.1559    2.7295 H         1 <0>         0.3911
     28 H8          0.0501   -4.8609   -1.8722 H         1 <0>         0.1386
     29 H9          0.0510   -5.6950   -4.1981 H         1 <0>         0.1388
     30 H10         0.0393   -6.1168   -6.2825 H         1 <0>         0.1306
     31 H11         0.0363   -6.5226   -8.7069 H         1 <0>         0.1343
     32 H12         0.0252   -4.6301  -10.2774 H         1 <0>         0.1329
     33 H13         0.0065   -1.8885   -7.0011 H         1 <0>         0.1299
     34 H14        -0.8709   -1.8028   -9.8609 H         1 <0>         0.3934
@<TRIPOS>BOND
     1    1    2 1
     2    1   21 1
     3    1   22 1
     4    1   23 1
     5    2    7 ar
     6    2    3 ar
     7    3    4 ar
     8    3   24 1
     9    4    5 ar
    10    4    9 1
    11    5    6 ar
    12    5   25 1
    13    6    7 ar
    14    6   26 1
    15    7    8 1
    16    8   27 1
    17    9   13 1
    18    9   10 2
    19   10   11 1
    20   10   28 1
    21   11   12 2
    22   11   29 1
    23   12   13 1
    24   12   14 1
    25   14   19 ar
    26   14   15 ar
    27   15   16 ar
    28   15   30 1
    29   16   17 ar
    30   16   31 1
    31   17   18 ar
    32   17   32 1
    33   18   19 ar
    34   18   20 1
    35   19   33 1
    36   20   34 1
@<TRIPOS>MOLECULE
CHEMBL271121
   45    48     0     0     0
SMALL
USER_CHARGES

@<TRIPOS>ATOM
      1 C1         -0.0184    1.5028    0.0103 C.3       1 <0>        -0.1102
      2 C2          0.0021   -0.0041    0.0020 C.ar      1 <0>        -0.1780
      3 C3          0.0061   -0.7072   -1.1924 C.ar      1 <0>         0.1471
      4 N1          0.0242   -2.0300   -1.1605 N.ar      1 <0>        -0.4967
      5 C4          0.0382   -2.6776   -0.0127 C.ar      1 <0>         0.2866
      6 N2          0.0350   -2.0426    1.1421 N.ar      1 <0>        -0.4966
      7 C5          0.0231   -0.7201    1.1885 C.ar      1 <0>         0.1470
      8 C6          0.0581   -4.1845   -0.0210 C.3       1 <0>         0.1998
      9 N3          1.4456   -4.6545   -0.0303 N.pl3     1 <0>        -0.7022
     10 C7          1.7169   -6.0137   -0.0390 C.ar      1 <0>         0.4537
     11 C8          0.6756   -6.9424   -0.0449 C.ar      1 <0>        -0.2828
     12 C9          0.9974   -8.2980   -0.0540 C.ar      1 <0>         0.2546
     13 N4          2.2799   -8.6588   -0.0569 N.ar      1 <0>        -0.5410
     14 C10         3.2406   -7.7480   -0.0512 C.ar      1 <0>         0.4067
     15 N5          2.9720   -6.4498   -0.0475 N.ar      1 <0>        -0.5688
     16 C11         4.6568   -8.1923   -0.0542 C.ar      1 <0>         0.0009
     17 C12         4.9827   -9.5509   -0.0688 C.ar      1 <0>        -0.1237
     18 C13         6.3129   -9.9206   -0.0716 C.ar      1 <0>         0.0919
     19 N6          7.2681   -9.0115   -0.0606 N.ar      1 <0>        -0.4739
     20 C14         7.0034   -7.7196   -0.0467 C.ar      1 <0>         0.0914
     21 C15         5.7005   -7.2632   -0.0483 C.ar      1 <0>        -0.1251
     22 C16        -0.0729   -9.3251   -0.0600 C.ar      1 <0>        -0.0613
     23 C17        -1.4122   -8.9396   -0.0623 C.ar      1 <0>        -0.0903
     24 C18        -2.4038   -9.8995   -0.0678 C.ar      1 <0>        -0.1253
     25 C19        -2.0704  -11.2420   -0.0711 C.ar      1 <0>        -0.1000
     26 C20        -0.7428  -11.6303   -0.0689 C.ar      1 <0>        -0.1271
     27 C21         0.2571  -10.6790   -0.0692 C.ar      1 <0>        -0.0697
     28 H1          1.0042    1.8801    0.0026 H         1 <0>         0.0811
     29 H2         -0.5455    1.8639   -0.8728 H         1 <0>         0.0765
     30 H3         -0.5286    1.8543    0.9071 H         1 <0>         0.0765
     31 H4         -0.0057   -0.1826   -2.1363 H         1 <0>         0.1732
     32 H5          0.0254   -0.2057    2.1382 H         1 <0>         0.1732
     33 H6         -0.4465   -4.5594    0.8694 H         1 <0>         0.0956
     34 H7         -0.4552   -4.5497   -0.9105 H         1 <0>         0.0956
     35 H8          2.1745   -4.0145   -0.0304 H         1 <0>         0.4101
     36 H9         -0.3547   -6.6184   -0.0420 H         1 <0>         0.1465
     37 H10         4.2055  -10.3008   -0.0775 H         1 <0>         0.1487
     38 H11         6.5746  -10.9684   -0.0825 H         1 <0>         0.1619
     39 H12         7.8168   -7.0092   -0.0380 H         1 <0>         0.1608
     40 H13         5.4909   -6.2038   -0.0415 H         1 <0>         0.1466
     41 H14        -1.6735   -7.8917   -0.0593 H         1 <0>         0.1268
     42 H15        -3.4420   -9.6019   -0.0692 H         1 <0>         0.1284
     43 H16        -2.8497  -11.9898   -0.0751 H         1 <0>         0.1262
     44 H17        -0.4882  -12.6799   -0.0712 H         1 <0>         0.1285
     45 H18         1.2934  -10.9833   -0.0724 H         1 <0>         0.1367
@<TRIPOS>BOND
     1    1    2 1
     2    1   28 1
     3    1   29 1
     4    1   30 1
     5    2    7 ar
     6    2    3 ar
     7    3    4 ar
     8    3   31 1
     9    4    5 ar
    10    5    6 ar
    11    5    8 1
    12    6    7 ar
    13    7   32 1
    14    8    9 1
    15    8   33 1
    16    8   34 1
    17    9   10 1
    18    9   35 1
    19   10   15 ar
    20   10   11 ar
    21   11   12 ar
    22   11   36 1
    23   12   13 ar
    24   12   22 1
    25   13   14 ar
    26   14   15 ar
    27   14   16 1
    28   16   21 ar
    29   16   17 ar
    30   17   18 ar
    31   17   37 1
    32   18   19 ar
    33   18   38 1
    34   19   20 ar
    35   20   21 ar
    36   20   39 1
    37   21   40 1
    38   22   27 ar
    39   22   23 ar
    40   23   24 ar
    41   23   41 1
    42   24   25 ar
    43   24   42 1
    44   25   26 ar
    45   25   43 1
    46   26   27 ar
    47   26   44 1
    48   27   45 1
@<TRIPOS>MOLECULE
CHEMBL271240
   65    69     0     0     0
SMALL
USER_CHARGES

@<TRIPOS>ATOM
      1 C1         -0.0184    1.5028    0.0103 C.3       1 <0>        -0.0721
      2 C2          0.0021   -0.0041    0.0020 C.2       1 <0>        -0.0321
      3 C3         -1.0705   -0.8164    0.0025 C.2       1 <0>        -0.0061
      4 N1         -0.6270   -2.0826   -0.0064 N.2       1 <0>        -0.4584
      5 C4          0.6851   -2.0676   -0.0123 C.2       1 <0>         0.2280
      6 O1          1.0981   -0.7883   -0.0131 O.3       1 <0>        -0.1935
      7 C5          1.5619   -3.2577   -0.0227 C.ar      1 <0>        -0.0168
      8 C6          1.0059   -4.5378   -0.0330 C.ar      1 <0>        -0.0707
      9 C7          1.8298   -5.6443   -0.0432 C.ar      1 <0>        -0.1205
     10 C8          3.2044   -5.4871   -0.0433 C.ar      1 <0>        -0.1014
     11 C9          3.7620   -4.2209   -0.0327 C.ar      1 <0>        -0.1213
     12 C10         2.9493   -3.1060   -0.0282 C.ar      1 <0>        -0.0909
     13 C11        -2.5133   -0.3814    0.0119 C.3       1 <0>        -0.0352
     14 C12        -3.0085   -0.2260   -1.4274 C.3       1 <0>         0.0690
     15 O2         -4.3766    0.1865   -1.4185 O.3       1 <0>        -0.3140
     16 C13        -4.9731    0.3716   -2.6255 C.ar      1 <0>         0.1245
     17 C14        -4.2579    0.1549   -3.7946 C.ar      1 <0>        -0.2155
     18 C15        -4.8665    0.3431   -5.0201 C.ar      1 <0>        -0.0811
     19 C16        -6.1876    0.7473   -5.0825 C.ar      1 <0>        -0.1360
     20 C17        -6.9022    0.9643   -3.9192 C.ar      1 <0>        -0.0343
     21 C18        -6.2996    0.7718   -2.6908 C.ar      1 <0>        -0.1427
     22 C19        -8.3415    1.4051   -3.9909 C.3       1 <0>        -0.0637
     23 C20        -9.2509    0.1751   -4.0173 C.3       1 <0>        -0.1209
     24 H1         -8.9647   -0.5732   -3.2782 H         1 <0>         0.1117
     25 C21       -10.7423    0.5239   -3.9791 C.3       1 <0>         0.0683
     26 H2        -11.3127   -0.0388   -3.2402 H         1 <0>         0.1009
     27 N2        -10.7542   -0.0665   -5.3226 N.am      1 <0>        -0.5453
     28 C22        -9.4413   -0.3962   -5.4013 C.2       1 <0>         0.5349
     29 O3         -8.7256   -0.9226   -6.2270 O.2       1 <0>        -0.4980
     30 C23       -11.7996   -0.2389   -6.2394 C.ar      1 <0>         0.1518
     31 C24       -13.0804    0.1925   -5.9213 C.ar      1 <0>        -0.0835
     32 C25       -14.1104    0.0222   -6.8253 C.ar      1 <0>        -0.1227
     33 C26       -13.8655   -0.5797   -8.0509 C.ar      1 <0>         0.0848
     34 C27       -12.5862   -1.0113   -8.3691 C.ar      1 <0>        -0.1809
     35 C28       -11.5541   -0.8361   -7.4686 C.ar      1 <0>        -0.1272
     36 O4        -14.8801   -0.7470   -8.9405 O.3       1 <0>        -0.3220
     37 C29       -14.5565   -1.3743  -10.1831 C.3       1 <0>         0.0301
     38 C30       -11.0281    2.0033   -3.9497 C.2       1 <0>         0.5021
     39 O5        -11.5200    2.5486   -4.9229 O.co2     1 <0>        -0.6665
     40 O6        -10.7676    2.6548   -2.9526 O.co2     1 <0>        -0.6774
     41 H3          1.0042    1.8801    0.0026 H         1 <0>         0.0803
     42 H4         -0.5455    1.8639   -0.8728 H         1 <0>         0.0925
     43 H5         -0.5286    1.8543    0.9071 H         1 <0>         0.0938
     44 H6         -0.0670   -4.6619   -0.0326 H         1 <0>         0.1392
     45 H7          1.4008   -6.6354   -0.0508 H         1 <0>         0.1328
     46 H8          3.8450   -6.3565   -0.0513 H         1 <0>         0.1283
     47 H9          4.8357   -4.1050   -0.0321 H         1 <0>         0.1305
     48 H10         3.3858   -2.1181   -0.0249 H         1 <0>         0.1300
     49 H11        -3.1156   -1.1316    0.5243 H         1 <0>         0.0953
     50 H12        -2.6018    0.5726    0.5316 H         1 <0>         0.0937
     51 H13        -2.4061    0.5242   -1.9398 H         1 <0>         0.0599
     52 H14        -2.9200   -1.1800   -1.9471 H         1 <0>         0.0643
     53 H15        -3.2261   -0.1604   -3.7464 H         1 <0>         0.1201
     54 H16        -4.3102    0.1749   -5.9304 H         1 <0>         0.1205
     55 H17        -6.6617    0.8940   -6.0418 H         1 <0>         0.1231
     56 H18        -6.8596    0.9372   -1.7823 H         1 <0>         0.1336
     57 H19        -8.5789    2.0139   -3.1184 H         1 <0>         0.1127
     58 H20        -8.4972    1.9916   -4.8964 H         1 <0>         0.0785
     59 H21       -13.2713    0.6608   -4.9670 H         1 <0>         0.1346
     60 H22       -15.1068    0.3574   -6.5779 H         1 <0>         0.1299
     61 H23       -12.3963   -1.4802   -9.3233 H         1 <0>         0.1246
     62 H24       -10.5571   -1.1678   -7.7184 H         1 <0>         0.1298
     63 H25       -15.4534   -1.4459  -10.7983 H         1 <0>         0.0937
     64 H26       -13.8047   -0.7817  -10.7043 H         1 <0>         0.0517
     65 H27       -14.1647   -2.3737   -9.9943 H         1 <0>         0.0508
@<TRIPOS>BOND
     1    1    2 1
     2    1   41 1
     3    1   42 1
     4    1   43 1
     5    2    6 1
     6    2    3 2
     7    3    4 1
     8    3   13 1
     9    4    5 2
    10    5    6 1
    11    5    7 1
    12    7   12 ar
    13    7    8 ar
    14    8    9 ar
    15    8   44 1
    16    9   10 ar
    17    9   45 1
    18   10   11 ar
    19   10   46 1
    20   11   12 ar
    21   11   47 1
    22   12   48 1
    23   13   14 1
    24   13   49 1
    25   13   50 1
    26   14   15 1
    27   14   51 1
    28   14   52 1
    29   15   16 1
    30   16   21 ar
    31   16   17 ar
    32   17   18 ar
    33   17   53 1
    34   18   19 ar
    35   18   54 1
    36   19   20 ar
    37   19   55 1
    38   20   21 ar
    39   20   22 1
    40   21   56 1
    41   22   23 1
    42   22   57 1
    43   22   58 1
    44   23   24 1
    45   23   28 1
    46   23   25 1
    47   25   26 1
    48   25   27 1
    49   25   38 1
    50   27   28 am
    51   27   30 1
    52   28   29 2
    53   30   35 ar
    54   30   31 ar
    55   31   32 ar
    56   31   59 1
    57   32   33 ar
    58   32   60 1
    59   33   34 ar
    60   33   36 1
    61   34   35 ar
    62   34   61 1
    63   35   62 1
    64   36   37 1
    65   37   63 1
    66   37   64 1
    67   37   65 1
    68   38   39 2
    69   38   40 1
@<TRIPOS>MOLECULE
CHEMBL255460
   61    65     0     0     0
SMALL
USER_CHARGES

@<TRIPOS>ATOM
      1 C1         -0.6235    0.7079   -0.3038 C.ar      1 <0>        -0.1192
      2 C2          0.3003    1.6214    0.1684 C.ar      1 <0>        -0.1155
      3 C3          1.6238    1.2516    0.3180 C.ar      1 <0>        -0.1106
      4 C4          2.0235   -0.0318   -0.0042 C.ar      1 <0>        -0.0780
      5 C5          1.0996   -0.9456   -0.4756 C.ar      1 <0>        -0.1167
      6 C6         -0.2237   -0.5754   -0.6266 C.ar      1 <0>        -0.1186
      7 C7          3.4666   -0.4347    0.1579 C.3       1 <0>        -0.0541
      8 C8          3.8890   -1.3086   -1.0253 C.3       1 <0>        -0.1165
      9 C9          5.3635   -1.6911   -0.8784 C.3       1 <0>        -0.1338
     10 C10         5.5516   -2.4981    0.4101 C.3       1 <0>         0.0934
     11 N1          5.0142   -1.7226    1.5365 N.am      1 <0>        -0.6014
     12 C11         3.6332   -1.2274    1.4581 C.3       1 <0>         0.1616
     13 C12         2.6629   -2.4103    1.4655 C.3       1 <0>         0.0412
     14 N2          2.8208   -3.1654    2.7157 N.3       1 <0>        -0.5273
     15 C13         4.0184   -4.0168    2.6693 C.3       1 <0>         0.0077
     16 C14         4.1774   -4.7382    4.0103 C.3       1 <0>         0.0666
     17 O1          2.9909   -5.4873    4.2865 O.3       1 <0>        -0.3851
     18 C15         1.8054   -4.6891    4.3395 C.3       1 <0>         0.0634
     19 C16         1.6224   -3.9673    3.0019 C.3       1 <0>         0.0195
     20 C17         5.7736   -1.4706    2.6211 C.2       1 <0>         0.5030
     21 O2          5.3184   -0.8293    3.5443 O.2       1 <0>        -0.5034
     22 C18         7.1883   -1.9859    2.6866 C.3       1 <0>         0.0707
     23 N3          7.7967   -1.5821    3.9566 N.am      1 <0>        -0.5264
     24 C19         8.4704   -0.3753    4.0404 C.ar      1 <0>         0.1515
     25 C20         8.6654    0.5721    3.0215 C.ar      1 <0>        -0.1134
     26 C21         9.3629    1.7330    3.2611 C.ar      1 <0>         0.0028
     27 C22         9.8952    2.0065    4.5108 C.ar      1 <0>        -0.1106
     28 C23         9.7182    1.0904    5.5332 C.ar      1 <0>        -0.0263
     29 C24         9.0214   -0.0687    5.2933 C.ar      1 <0>        -0.1285
     30 S1          8.5740   -1.4724    6.2860 S.3       1 <0>        -0.0189
     31 C25         7.6902   -2.3864    5.0325 C.2       1 <0>         0.5458
     32 O3          7.1336   -3.4649    5.1257 O.2       1 <0>        -0.4345
     33 Cl1         9.5812    2.8767    1.9735 Cl        1 <0>        -0.0511
     34 H1         -1.6584    0.9955   -0.4165 H         1 <0>         0.1219
     35 H2         -0.0120    2.6242    0.4202 H         1 <0>         0.1229
     36 H3          2.3456    1.9656    0.6863 H         1 <0>         0.1214
     37 H4          1.4119   -1.9483   -0.7277 H         1 <0>         0.1211
     38 H5         -0.9454   -1.2893   -0.9952 H         1 <0>         0.1218
     39 H6          4.0916    0.4576    0.1932 H         1 <0>         0.0872
     40 H7          3.2797   -2.2121   -1.0452 H         1 <0>         0.0697
     41 H8          3.7482   -0.7554   -1.9539 H         1 <0>         0.0738
     42 H9          5.6699   -2.2940   -1.7332 H         1 <0>         0.0826
     43 H10         5.9711   -0.7873   -0.8336 H         1 <0>         0.0720
     44 H11         5.0168   -3.4445    0.3299 H         1 <0>         0.0757
     45 H12         6.6128   -2.6881    0.5706 H         1 <0>         0.0852
     46 H13         3.4286   -0.5790    2.3101 H         1 <0>         0.1107
     47 H14         1.6399   -2.0417    1.3905 H         1 <0>         0.0945
     48 H15         2.8775   -3.0616    0.6182 H         1 <0>         0.0431
     49 H16         3.9120   -4.7514    1.8712 H         1 <0>         0.0369
     50 H17         4.8969   -3.3994    2.4818 H         1 <0>         0.0936
     51 H18         5.0313   -5.4139    3.9611 H         1 <0>         0.0958
     52 H19         4.3375   -4.0053    4.8011 H         1 <0>         0.0601
     53 H20         0.9437   -5.3294    4.5285 H         1 <0>         0.0977
     54 H21         1.8965   -3.9549    5.1399 H         1 <0>         0.0591
     55 H22         0.7518   -3.3137    3.0571 H         1 <0>         0.0854
     56 H23         1.4776   -4.7011    2.2091 H         1 <0>         0.0413
     57 H24         7.1824   -3.0736    2.6161 H         1 <0>         0.1258
     58 H25         7.7646   -1.5713    1.8595 H         1 <0>         0.1225
     59 H26         8.2624    0.3862    2.0369 H         1 <0>         0.1366
     60 H27        10.4411    2.9220    4.6847 H         1 <0>         0.1526
     61 H28        10.1253    1.2861    6.5142 H         1 <0>         0.1517
@<TRIPOS>BOND
     1    1    6 ar
     2    1    2 ar
     3    1   34 1
     4    2    3 ar
     5    2   35 1
     6    3    4 ar
     7    3   36 1
     8    4    5 ar
     9    4    7 1
    10    5    6 ar
    11    5   37 1
    12    6   38 1
    13    7   12 1
    14    7    8 1
    15    7   39 1
    16    8    9 1
    17    8   40 1
    18    8   41 1
    19    9   10 1
    20    9   42 1
    21    9   43 1
    22   10   11 1
    23   10   44 1
    24   10   45 1
    25   11   12 1
    26   11   20 am
    27   12   13 1
    28   12   46 1
    29   13   14 1
    30   13   47 1
    31   13   48 1
    32   14   19 1
    33   14   15 1
    34   15   16 1
    35   15   49 1
    36   15   50 1
    37   16   17 1
    38   16   51 1
    39   16   52 1
    40   17   18 1
    41   18   19 1
    42   18   53 1
    43   18   54 1
    44   19   55 1
    45   19   56 1
    46   20   21 2
    47   20   22 1
    48   22   23 1
    49   22   57 1
    50   22   58 1
    51   23   31 am
    52   23   24 1
    53   24   29 ar
    54   24   25 ar
    55   25   26 ar
    56   25   59 1
    57   26   27 ar
    58   26   33 1
    59   27   28 ar
    60   27   60 1
    61   28   29 ar
    62   28   61 1
    63   29   30 1
    64   30   31 1
    65   31   32 2
@<TRIPOS>MOLECULE
CHEMBL255460
   62    66     0     0     0
SMALL
USER_CHARGES

@<TRIPOS>ATOM
      1 C1         -0.6647    0.6772   -0.2804 C.ar      1 <0>        -0.1090
      2 C2          0.2455    1.5979    0.2040 C.ar      1 <0>        -0.1076
      3 C3          1.5739    1.2449    0.3512 C.ar      1 <0>        -0.1059
      4 C4          1.9919   -0.0290    0.0145 C.ar      1 <0>        -0.1002
      5 C5          1.0815   -0.9500   -0.4690 C.ar      1 <0>        -0.1327
      6 C6         -0.2466   -0.5965   -0.6176 C.ar      1 <0>        -0.1134
      7 C7          3.4403   -0.4136    0.1741 C.3       1 <0>        -0.0433
      8 C8          3.8749   -1.2722   -1.0159 C.3       1 <0>        -0.1207
      9 C9          5.3544   -1.6359   -0.8713 C.3       1 <0>        -0.1391
     10 C10         5.5529   -2.4505    0.4108 C.3       1 <0>         0.0860
     11 N1          5.0047   -1.6914    1.5430 N.am      1 <0>        -0.6219
     12 C11         3.6171   -1.2143    1.4680 C.3       1 <0>         0.1298
     13 C12         2.6629   -2.4103    1.4655 C.3       1 <0>        -0.0315
     14 N2          2.8208   -3.1654    2.7157 N.4       1 <0>        -0.3813
     15 C13         4.0422   -3.9793    2.6456 C.3       1 <0>        -0.0635
     16 C14         4.2046   -4.7647    3.9494 C.3       1 <0>         0.0404
     17 O1          3.0448   -5.5749    4.1594 O.3       1 <0>        -0.3537
     18 C15         1.8254   -4.8290    4.2111 C.3       1 <0>         0.0354
     19 C16         1.6586   -4.0436    2.9079 C.3       1 <0>        -0.0447
     20 C17         5.7602   -1.4379    2.6300 C.2       1 <0>         0.4949
     21 O2          5.2961   -0.8102    3.5581 O.2       1 <0>        -0.5001
     22 C18         7.1817   -1.9345    2.6921 C.3       1 <0>         0.0703
     23 N3          7.7842   -1.5327    3.9656 N.am      1 <0>        -0.5272
     24 C19         8.4415   -0.3176    4.0593 C.ar      1 <0>         0.1380
     25 C20         8.6239    0.6405    3.0481 C.ar      1 <0>        -0.1126
     26 C21         9.3056    1.8087    3.2973 C.ar      1 <0>         0.0025
     27 C22         9.8337    2.0794    4.5494 C.ar      1 <0>        -0.1017
     28 C23         9.6687    1.1529    5.5643 C.ar      1 <0>        -0.0239
     29 C24         8.9878   -0.0136    5.3148 C.ar      1 <0>        -0.1275
     30 S1          8.5590   -1.4311    6.2961 S.3       1 <0>         0.0049
     31 C25         7.6881   -2.3469    5.0349 C.2       1 <0>         0.5397
     32 O3          7.1461   -3.4336    5.1192 O.2       1 <0>        -0.4504
     33 Cl1         9.5089    2.9655    2.0189 Cl        1 <0>        -0.0427
     34 H1         -1.7034    0.9516   -0.3912 H         1 <0>         0.1289
     35 H2         -0.0810    2.5932    0.4670 H         1 <0>         0.1296
     36 H3          2.2852    1.9644    0.7289 H         1 <0>         0.1256
     37 H4          1.4081   -1.9452   -0.7324 H         1 <0>         0.1213
     38 H5         -0.9579   -1.3159   -0.9957 H         1 <0>         0.1277
     39 H6          4.0532    0.4868    0.2168 H         1 <0>         0.1047
     40 H7          3.2778   -2.1837   -1.0432 H         1 <0>         0.0689
     41 H8          3.7269   -0.7136   -1.9400 H         1 <0>         0.0881
     42 H9          5.6692   -2.2278   -1.7308 H         1 <0>         0.0941
     43 H10         5.9497   -0.7244   -0.8190 H         1 <0>         0.0806
     44 H11         5.0310   -3.4034    0.3228 H         1 <0>         0.0797
     45 H12         6.6165   -2.6275    0.5703 H         1 <0>         0.1006
     46 H13         3.4035   -0.5756    2.3251 H         1 <0>         0.1264
     47 H14         1.6356   -2.0554    1.3827 H         1 <0>         0.1529
     48 H15         2.8932   -3.0571    0.6189 H         1 <0>         0.1378
     49 H16         3.9685   -4.6743    1.8092 H         1 <0>         0.1392
     50 H17         4.9051   -3.3286    2.5032 H         1 <0>         0.1403
     51 H18         5.0865   -5.4019    3.8830 H         1 <0>         0.1428
     52 H19         4.3186   -4.0697    4.7813 H         1 <0>         0.0815
     53 H20         0.9854   -5.5126    4.3342 H         1 <0>         0.1436
     54 H21         1.8580   -4.1362    5.0520 H         1 <0>         0.0803
     55 H22         0.7520   -3.4408    2.9601 H         1 <0>         0.1429
     56 H23         1.5858   -4.7386    2.0713 H         1 <0>         0.1400
     57 H24         7.1906   -3.0216    2.6129 H         1 <0>         0.1313
     58 H25         7.7527   -1.5056    1.8686 H         1 <0>         0.1328
     59 H26         8.2238    0.4570    2.0619 H         1 <0>         0.1353
     60 H27        10.3671    3.0007    4.7309 H         1 <0>         0.1571
     61 H28        10.0728    1.3462    6.5470 H         1 <0>         0.1556
     62 H29         2.8887   -2.5227    3.4906 H         1 <0>         0.4233
@<TRIPOS>BOND
     1    1    6 ar
     2    1    2 ar
     3    1   34 1
     4    2    3 ar
     5    2   35 1
     6    3    4 ar
     7    3   36 1
     8    4    5 ar
     9    4    7 1
    10    5    6 ar
    11    5   37 1
    12    6   38 1
    13    7   12 1
    14    7    8 1
    15    7   39 1
    16    8    9 1
    17    8   40 1
    18    8   41 1
    19    9   10 1
    20    9   42 1
    21    9   43 1
    22   10   11 1
    23   10   44 1
    24   10   45 1
    25   11   12 1
    26   11   20 am
    27   12   13 1
    28   12   46 1
    29   13   14 1
    30   13   47 1
    31   13   48 1
    32   14   19 1
    33   14   15 1
    34   14   62 1
    35   15   16 1
    36   15   49 1
    37   15   50 1
    38   16   17 1
    39   16   51 1
    40   16   52 1
    41   17   18 1
    42   18   19 1
    43   18   53 1
    44   18   54 1
    45   19   55 1
    46   19   56 1
    47   20   21 2
    48   20   22 1
    49   22   23 1
    50   22   57 1
    51   22   58 1
    52   23   31 am
    53   23   24 1
    54   24   29 ar
    55   24   25 ar
    56   25   26 ar
    57   25   59 1
    58   26   27 ar
    59   26   33 1
    60   27   28 ar
    61   27   60 1
    62   28   29 ar
    63   28   61 1
    64   29   30 1
    65   30   31 1
    66   31   32 2
@<TRIPOS>MOLECULE
CHEMBL255460
   61    65     0     0     0
SMALL
USER_CHARGES

@<TRIPOS>ATOM
      1 C1         -0.8236    0.2124    0.8793 C.ar      1 <0>        -0.1211
      2 C2          0.1113    1.2142    0.6967 C.ar      1 <0>        -0.1162
      3 C3          1.4287    0.8901    0.4313 C.ar      1 <0>        -0.1134
      4 C4          1.8113   -0.4357    0.3490 C.ar      1 <0>        -0.0756
      5 C5          0.8766   -1.4374    0.5325 C.ar      1 <0>        -0.1147
      6 C6         -0.4411   -1.1134    0.7965 C.ar      1 <0>        -0.1159
      7 C7          3.2472   -0.7889    0.0587 C.3       1 <0>        -0.0568
      8 C8          3.3208   -1.6083   -1.2318 C.3       1 <0>        -0.1102
      9 C9          4.7817   -1.9397   -1.5451 C.3       1 <0>        -0.1355
     10 C10         5.3665   -2.7794   -0.4051 C.3       1 <0>         0.1039
     11 N1          5.1688   -2.0608    0.8611 N.am      1 <0>        -0.6051
     12 C11         3.8146   -1.6156    1.2168 C.3       1 <0>         0.1655
     13 C12         3.8729   -0.7554    2.4808 C.3       1 <0>         0.0686
     14 N2          4.2123   -1.6007    3.6332 N.3       1 <0>        -0.4997
     15 C13         3.1345   -2.5587    3.9195 C.3       1 <0>         0.0083
     16 C14         3.5538   -3.4567    5.0864 C.3       1 <0>         0.0676
     17 O1          3.8692   -2.6422    6.2188 O.3       1 <0>        -0.3866
     18 C15         4.9155   -1.6980    5.9754 C.3       1 <0>         0.0670
     19 C16         4.5099   -0.7822    4.8176 C.3       1 <0>         0.0376
     20 C17         6.2100   -1.8151    1.6810 C.2       1 <0>         0.4991
     21 O2          6.0550   -1.1290    2.6690 O.2       1 <0>        -0.4713
     22 C18         7.5666   -2.3928    1.3700 C.3       1 <0>         0.0729
     23 N3          8.5204   -1.9835    2.4039 N.am      1 <0>        -0.5245
     24 C19         9.2344   -0.8071    2.2503 C.ar      1 <0>         0.1551
     25 C20         9.1711    0.1027    1.1817 C.ar      1 <0>        -0.1137
     26 C21         9.9499    1.2362    1.1727 C.ar      1 <0>         0.0026
     27 C22        10.8201    1.5184    2.2134 C.ar      1 <0>        -0.1126
     28 C23        10.9027    0.6392    3.2792 C.ar      1 <0>        -0.0268
     29 C24        10.1246   -0.4927    3.2876 C.ar      1 <0>        -0.1289
     30 S1          9.9216   -1.8472    4.4190 S.3       1 <0>        -0.0276
     31 C25         8.6896   -2.7530    3.4971 C.2       1 <0>         0.5493
     32 O3          8.1422   -3.8019    3.7830 O.2       1 <0>        -0.4339
     33 Cl1         9.8410    2.3338   -0.1679 Cl        1 <0>        -0.0525
     34 H1         -1.8519    0.4656    1.0911 H         1 <0>         0.1216
     35 H2         -0.1876    2.2500    0.7610 H         1 <0>         0.1221
     36 H3          2.1590    1.6728    0.2879 H         1 <0>         0.1201
     37 H4          1.1754   -2.4733    0.4678 H         1 <0>         0.1185
     38 H5         -1.1714   -1.8960    0.9395 H         1 <0>         0.1219
     39 H6          3.8306    0.1247   -0.0562 H         1 <0>         0.0836
     40 H7          2.7574   -2.5331   -1.1074 H         1 <0>         0.0680
     41 H8          2.8951   -1.0316   -2.0529 H         1 <0>         0.0717
     42 H9          4.8353   -2.5032   -2.4765 H         1 <0>         0.0813
     43 H10         5.3509   -1.0155   -1.6452 H         1 <0>         0.0697
     44 H11         4.8573   -3.7422   -0.3621 H         1 <0>         0.0734
     45 H12         6.4320   -2.9345   -0.5748 H         1 <0>         0.0823
     46 H13         3.1789   -2.4836    1.3921 H         1 <0>         0.0757
     47 H14         4.6329    0.0166    2.3601 H         1 <0>         0.0978
     48 H15         2.9026   -0.2873    2.6467 H         1 <0>         0.0305
     49 H16         2.2269   -2.0167    4.1853 H         1 <0>         0.0369
     50 H17         2.9482   -3.1713    3.0374 H         1 <0>         0.0772
     51 H18         2.7354   -4.1306    5.3394 H         1 <0>         0.0927
     52 H19         4.4303   -4.0385    4.8012 H         1 <0>         0.0560
     53 H20         5.0818   -1.1000    6.8714 H         1 <0>         0.0929
     54 H21         5.8315   -2.2287    5.7160 H         1 <0>         0.0564
     55 H22         5.3277   -0.0980    4.5910 H         1 <0>         0.0885
     56 H23         3.6243   -0.2118    5.0977 H         1 <0>         0.0304
     57 H24         7.5015   -3.4806    1.3459 H         1 <0>         0.1225
     58 H25         7.9035   -2.0275    0.3999 H         1 <0>         0.1152
     59 H26         8.5023   -0.0908    0.3561 H         1 <0>         0.1364
     60 H27        11.4260    2.4122    2.1931 H         1 <0>         0.1514
     61 H28        11.5749    0.8422    4.0998 H         1 <0>         0.1504
@<TRIPOS>BOND
     1    1    6 ar
     2    1    2 ar
     3    1   34 1
     4    2    3 ar
     5    2   35 1
     6    3    4 ar
     7    3   36 1
     8    4    5 ar
     9    4    7 1
    10    5    6 ar
    11    5   37 1
    12    6   38 1
    13    7   12 1
    14    7    8 1
    15    7   39 1
    16    8    9 1
    17    8   40 1
    18    8   41 1
    19    9   10 1
    20    9   42 1
    21    9   43 1
    22   10   11 1
    23   10   44 1
    24   10   45 1
    25   11   12 1
    26   11   20 am
    27   12   13 1
    28   12   46 1
    29   13   14 1
    30   13   47 1
    31   13   48 1
    32   14   19 1
    33   14   15 1
    34   15   16 1
    35   15   49 1
    36   15   50 1
    37   16   17 1
    38   16   51 1
    39   16   52 1
    40   17   18 1
    41   18   19 1
    42   18   53 1
    43   18   54 1
    44   19   55 1
    45   19   56 1
    46   20   21 2
    47   20   22 1
    48   22   23 1
    49   22   57 1
    50   22   58 1
    51   23   31 am
    52   23   24 1
    53   24   29 ar
    54   24   25 ar
    55   25   26 ar
    56   25   59 1
    57   26   27 ar
    58   26   33 1
    59   27   28 ar
    60   27   60 1
    61   28   29 ar
    62   28   61 1
    63   29   30 1
    64   30   31 1
    65   31   32 2
@<TRIPOS>MOLECULE
CHEMBL255460
   62    66     0     0     0
SMALL
USER_CHARGES

@<TRIPOS>ATOM
      1 C1         -0.8893   -0.5607    0.7294 C.ar      1 <0>        -0.1089
      2 C2         -0.1386    0.5916    0.5896 C.ar      1 <0>        -0.1105
      3 C3          1.2229    0.5067    0.3664 C.ar      1 <0>        -0.1113
      4 C4          1.8339   -0.7306    0.2835 C.ar      1 <0>        -0.1016
      5 C5          1.0833   -1.8829    0.4242 C.ar      1 <0>        -0.1199
      6 C6         -0.2784   -1.7979    0.6460 C.ar      1 <0>        -0.1124
      7 C7          3.3181   -0.8232    0.0391 C.3       1 <0>        -0.0450
      8 C8          3.5752   -1.5960   -1.2565 C.3       1 <0>        -0.1150
      9 C9          5.0808   -1.6623   -1.5227 C.3       1 <0>        -0.1399
     10 C10         5.7665   -2.4057   -0.3720 C.3       1 <0>         0.0957
     11 N1          5.4057   -1.7533    0.8940 N.am      1 <0>        -0.5988
     12 C11         3.9838   -1.5570    1.2075 C.3       1 <0>         0.1274
     13 C12         3.8501   -0.7206    2.4816 C.3       1 <0>        -0.0090
     14 N2          4.1970   -1.5447    3.6471 N.4       1 <0>        -0.3690
     15 C13         3.1830   -2.5931    3.8251 C.3       1 <0>        -0.0568
     16 C14         3.5467   -3.4506    5.0398 C.3       1 <0>         0.0396
     17 O1          3.6453   -2.6135    6.1954 O.3       1 <0>        -0.3555
     18 C15         4.6044   -1.5609    6.0613 C.3       1 <0>         0.0379
     19 C16         4.2426   -0.6999    4.8485 C.3       1 <0>        -0.0305
     20 C17         6.3610   -1.3432    1.7518 C.2       1 <0>         0.5123
     21 O2          6.0566   -0.7119    2.7417 O.2       1 <0>        -0.5574
     22 C18         7.8072   -1.6690    1.4809 C.3       1 <0>         0.0711
     23 N3          8.6409   -1.1168    2.5515 N.am      1 <0>        -0.5280
     24 C19         9.1418    0.1690    2.4358 C.ar      1 <0>         0.1385
     25 C20         8.9536    1.0718    1.3761 C.ar      1 <0>        -0.1134
     26 C21         9.5211    2.3243    1.4067 C.ar      1 <0>         0.0026
     27 C22        10.2947    2.7365    2.4797 C.ar      1 <0>        -0.1017
     28 C23        10.4966    1.8672    3.5376 C.ar      1 <0>        -0.0237
     29 C24         9.9296    0.6165    3.5065 C.ar      1 <0>        -0.1282
     30 S1          9.9318   -0.7719    4.6148 S.3       1 <0>         0.0029
     31 C25         8.9079   -1.8634    3.6410 C.2       1 <0>         0.5355
     32 O3          8.5444   -2.9967    3.8961 O.2       1 <0>        -0.4450
     33 Cl1         9.2638    3.4087    0.0757 Cl        1 <0>        -0.0414
     34 H1         -1.9523   -0.4943    0.9083 H         1 <0>         0.1284
     35 H2         -0.6159    1.5582    0.6544 H         1 <0>         0.1287
     36 H3          1.8093    1.4069    0.2565 H         1 <0>         0.1244
     37 H4          1.5606   -2.8495    0.3590 H         1 <0>         0.1198
     38 H5         -0.8649   -2.6982    0.7555 H         1 <0>         0.1277
     39 H6          3.7360    0.1799   -0.0460 H         1 <0>         0.0961
     40 H7          3.1784   -2.6068   -1.1613 H         1 <0>         0.0751
     41 H8          3.0818   -1.0891   -2.0858 H         1 <0>         0.0865
     42 H9          5.2620   -2.1926   -2.4576 H         1 <0>         0.0964
     43 H10         5.4826   -0.6515   -1.5934 H         1 <0>         0.0770
     44 H11         5.4324   -3.4431   -0.3567 H         1 <0>         0.0919
     45 H12         6.8476   -2.3697   -0.5065 H         1 <0>         0.0981
     46 H13         3.5043   -2.5253    1.3516 H         1 <0>         0.1023
     47 H14         4.5243    0.1342    2.4274 H         1 <0>         0.1625
     48 H15         2.8234   -0.3679    2.5786 H         1 <0>         0.1298
     49 H16         2.2079   -2.1327    3.9839 H         1 <0>         0.1377
     50 H17         3.1484   -3.2205    2.9344 H         1 <0>         0.1314
     51 H18         2.7735   -4.2021    5.1996 H         1 <0>         0.1405
     52 H19         4.5032   -3.9430    4.8644 H         1 <0>         0.0762
     53 H20         4.5967   -0.9447    6.9604 H         1 <0>         0.1407
     54 H21         5.5971   -1.9887    5.9209 H         1 <0>         0.0770
     55 H22         4.9947    0.0781    4.7175 H         1 <0>         0.1432
     56 H23         3.2671   -0.2402    5.0069 H         1 <0>         0.1311
     57 H24         7.9349   -2.7508    1.4423 H         1 <0>         0.1393
     58 H25         8.1052   -1.2336    0.5271 H         1 <0>         0.1340
     59 H26         8.3557    0.7784    0.5259 H         1 <0>         0.1355
     60 H27        10.7346    3.7228    2.4903 H         1 <0>         0.1569
     61 H28        11.0963    2.1706    4.3830 H         1 <0>         0.1553
     62 H29         5.0998   -1.9710    3.5010 H         1 <0>         0.4163
@<TRIPOS>BOND
     1    1    6 ar
     2    1    2 ar
     3    1   34 1
     4    2    3 ar
     5    2   35 1
     6    3    4 ar
     7    3   36 1
     8    4    5 ar
     9    4    7 1
    10    5    6 ar
    11    5   37 1
    12    6   38 1
    13    7   12 1
    14    7    8 1
    15    7   39 1
    16    8    9 1
    17    8   40 1
    18    8   41 1
    19    9   10 1
    20    9   42 1
    21    9   43 1
    22   10   11 1
    23   10   44 1
    24   10   45 1
    25   11   12 1
    26   11   20 am
    27   12   13 1
    28   12   46 1
    29   13   14 1
    30   13   47 1
    31   13   48 1
    32   14   19 1
    33   14   15 1
    34   14   62 1
    35   15   16 1
    36   15   49 1
    37   15   50 1
    38   16   17 1
    39   16   51 1
    40   16   52 1
    41   17   18 1
    42   18   19 1
    43   18   53 1
    44   18   54 1
    45   19   55 1
    46   19   56 1
    47   20   21 2
    48   20   22 1
    49   22   23 1
    50   22   57 1
    51   22   58 1
    52   23   31 am
    53   23   24 1
    54   24   29 ar
    55   24   25 ar
    56   25   26 ar
    57   25   59 1
    58   26   27 ar
    59   26   33 1
    60   27   28 ar
    61   27   60 1
    62   28   29 ar
    63   28   61 1
    64   29   30 1
    65   30   31 1
    66   31   32 2
@<TRIPOS>MOLECULE
CHEMBL255460
   61    65     0     0     0
SMALL
USER_CHARGES

@<TRIPOS>ATOM
      1 C1          0.6857    1.9395    0.4291 C.ar      1 <0>        -0.1282
      2 C2          1.8685    2.5572    0.0680 C.ar      1 <0>        -0.1156
      3 C3          3.0283    1.8143   -0.0497 C.ar      1 <0>        -0.0935
      4 C4          3.0054    0.4538    0.1942 C.ar      1 <0>        -0.0239
      5 C5          1.8228   -0.1637    0.5562 C.ar      1 <0>        -0.1161
      6 C6          0.6627    0.5790    0.6725 C.ar      1 <0>        -0.1170
      7 C7          4.2696   -0.3563    0.0650 C.3       1 <0>        -0.0518
      8 C8          4.5913   -1.0185    1.4066 C.3       1 <0>        -0.1143
      9 C9          5.8926   -1.8148    1.2853 C.3       1 <0>        -0.1370
     10 C10         5.7175   -2.9143    0.2331 C.3       1 <0>         0.1022
     11 N1          5.2671   -2.2994   -1.0230 N.am      1 <0>        -0.6042
     12 C11         4.0761   -1.4392   -1.0012 C.3       1 <0>         0.1622
     13 C12         3.8920   -0.7833   -2.3711 C.3       1 <0>         0.0560
     14 N2          2.6693    0.0310   -2.3638 N.3       1 <0>        -0.5254
     15 C13         1.4705   -0.8183   -2.4172 C.3       1 <0>         0.0217
     16 C14         0.2222    0.0653   -2.3474 C.3       1 <0>         0.0484
     17 O1          0.2586    1.0182   -3.4132 O.3       1 <0>        -0.3850
     18 C15         1.4127    1.8625   -3.3915 C.3       1 <0>         0.0637
     19 C16         2.6731    0.9971   -3.4718 C.3       1 <0>         0.0268
     20 C17         5.9340   -2.5198   -2.1733 C.2       1 <0>         0.5014
     21 O2          5.5041   -2.0777   -3.2177 O.2       1 <0>        -0.5130
     22 C18         7.2137   -3.3154   -2.1618 C.3       1 <0>         0.0714
     23 N3          7.6785   -3.5128   -3.5370 N.am      1 <0>        -0.5266
     24 C19         7.1798   -4.5666   -4.2841 C.ar      1 <0>         0.1515
     25 C20         6.2370   -5.5298   -3.8879 C.ar      1 <0>        -0.1127
     26 C21         5.8384   -6.5240   -4.7506 C.ar      1 <0>         0.0027
     27 C22         6.3512   -6.6090   -6.0350 C.ar      1 <0>        -0.1104
     28 C23         7.2817   -5.6730   -6.4518 C.ar      1 <0>        -0.0263
     29 C24         7.6794   -4.6803   -5.5897 C.ar      1 <0>        -0.1288
     30 S1          8.8138   -3.3184   -5.7085 S.3       1 <0>        -0.0189
     31 C25         8.5826   -2.6637   -4.0635 C.2       1 <0>         0.5458
     32 O3          9.1102   -1.6958   -3.5473 O.2       1 <0>        -0.4377
     33 Cl1         4.6713   -7.6947   -4.2203 Cl        1 <0>        -0.0506
     34 H1         -0.2195    2.5207    0.5254 H         1 <0>         0.1147
     35 H2          1.8864    3.6201   -0.1225 H         1 <0>         0.1142
     36 H3          3.9522    2.2967   -0.3325 H         1 <0>         0.1100
     37 H4          1.8048   -1.2267    0.7464 H         1 <0>         0.1096
     38 H5         -0.2613    0.0965    0.9549 H         1 <0>         0.1153
     39 H6          5.0923    0.2972   -0.2253 H         1 <0>         0.0791
     40 H7          4.7051   -0.2512    2.1723 H         1 <0>         0.0722
     41 H8          3.7790   -1.6903    1.6840 H         1 <0>         0.0680
     42 H9          6.7004   -1.1480    0.9839 H         1 <0>         0.0708
     43 H10         6.1334   -2.2670    2.2474 H         1 <0>         0.0827
     44 H11         6.6694   -3.4203    0.0714 H         1 <0>         0.0849
     45 H12         4.9730   -3.6328    0.5757 H         1 <0>         0.0788
     46 H13         3.1977   -2.0375   -0.7591 H         1 <0>         0.0771
     47 H14         4.7505   -0.1476   -2.5879 H         1 <0>         0.0763
     48 H15         3.8095   -1.5557   -3.1357 H         1 <0>         0.0794
     49 H16         1.4654   -1.3825   -3.3498 H         1 <0>         0.0369
     50 H17         1.4755   -1.5085   -1.5735 H         1 <0>         0.0795
     51 H18        -0.6688   -0.5551   -2.4441 H         1 <0>         0.0880
     52 H19         0.1999    0.5889   -1.3916 H         1 <0>         0.0798
     53 H20         1.3828    2.5419   -4.2433 H         1 <0>         0.0919
     54 H21         1.4250    2.4384   -2.4661 H         1 <0>         0.0625
     55 H22         3.5559    1.6321   -3.3981 H         1 <0>         0.0804
     56 H23         2.6872    0.4619   -4.4213 H         1 <0>         0.0395
     57 H24         7.9725   -2.7749   -1.5959 H         1 <0>         0.1309
     58 H25         7.0349   -4.2846   -1.6961 H         1 <0>         0.1198
     59 H26         5.8199   -5.4893   -2.8925 H         1 <0>         0.1362
     60 H27         6.0295   -7.3953   -6.7018 H         1 <0>         0.1528
     61 H28         7.6926   -5.7226   -7.4494 H         1 <0>         0.1518
@<TRIPOS>BOND
     1    1    6 ar
     2    1    2 ar
     3    1   34 1
     4    2    3 ar
     5    2   35 1
     6    3    4 ar
     7    3   36 1
     8    4    5 ar
     9    4    7 1
    10    5    6 ar
    11    5   37 1
    12    6   38 1
    13    7   12 1
    14    7    8 1
    15    7   39 1
    16    8    9 1
    17    8   40 1
    18    8   41 1
    19    9   10 1
    20    9   42 1
    21    9   43 1
    22   10   11 1
    23   10   44 1
    24   10   45 1
    25   11   12 1
    26   11   20 am
    27   12   13 1
    28   12   46 1
    29   13   14 1
    30   13   47 1
    31   13   48 1
    32   14   19 1
    33   14   15 1
    34   15   16 1
    35   15   49 1
    36   15   50 1
    37   16   17 1
    38   16   51 1
    39   16   52 1
    40   17   18 1
    41   18   19 1
    42   18   53 1
    43   18   54 1
    44   19   55 1
    45   19   56 1
    46   20   21 2
    47   20   22 1
    48   22   23 1
    49   22   57 1
    50   22   58 1
    51   23   31 am
    52   23   24 1
    53   24   29 ar
    54   24   25 ar
    55   25   26 ar
    56   25   59 1
    57   26   27 ar
    58   26   33 1
    59   27   28 ar
    60   27   60 1
    61   28   29 ar
    62   28   61 1
    63   29   30 1
    64   30   31 1
    65   31   32 2
@<TRIPOS>MOLECULE
CHEMBL255460
   62    66     0     0     0
SMALL
USER_CHARGES

@<TRIPOS>ATOM
      1 C1          0.4123    1.6562    0.2544 C.ar      1 <0>        -0.1056
      2 C2          1.6809    2.2002    0.1790 C.ar      1 <0>        -0.1099
      3 C3          2.7835    1.3719    0.0835 C.ar      1 <0>        -0.1274
      4 C4          2.6176   -0.0003    0.0638 C.ar      1 <0>        -0.1275
      5 C5          1.3491   -0.5443    0.1402 C.ar      1 <0>        -0.1333
      6 C6          0.2463    0.2840    0.2343 C.ar      1 <0>        -0.1119
      7 C7          3.8196   -0.9032   -0.0414 C.3       1 <0>        -0.0724
      8 C8          3.9103   -1.7806    1.2093 C.3       1 <0>        -0.1101
      9 C9          5.1490   -2.6748    1.1184 C.3       1 <0>        -0.1416
     10 C10         5.0258   -3.5882   -0.1052 C.3       1 <0>         0.0988
     11 N1          4.7930   -2.7571   -1.2943 N.am      1 <0>        -0.5980
     12 C11         3.6813   -1.7966   -1.2781 C.3       1 <0>         0.1347
     13 C12         3.7298   -0.9347   -2.5414 C.3       1 <0>        -0.0164
     14 N2          2.5061   -0.1269   -2.6302 N.4       1 <0>        -0.3973
     15 C13         1.3488   -1.0106   -2.8276 C.3       1 <0>        -0.0523
     16 C14         0.0751   -0.1666   -2.9196 C.3       1 <0>         0.0310
     17 O1          0.2079    0.7723   -3.9905 O.3       1 <0>        -0.3518
     18 C15         1.3363    1.6409   -3.8555 C.3       1 <0>         0.0367
     19 C16         2.6123    0.8002   -3.7653 C.3       1 <0>        -0.0415
     20 C17         5.5844   -2.8734   -2.3790 C.2       1 <0>         0.5111
     21 O2          5.4507   -2.1098   -3.3118 O.2       1 <0>        -0.5226
     22 C18         6.6353   -3.9521   -2.4329 C.3       1 <0>         0.0736
     23 N3          7.4312   -3.7980   -3.6531 N.am      1 <0>        -0.5293
     24 C19         6.9819   -4.3542   -4.8389 C.ar      1 <0>         0.1456
     25 C20         5.8031   -5.0884   -5.0508 C.ar      1 <0>        -0.1146
     26 C21         5.4923   -5.5803   -6.2970 C.ar      1 <0>         0.0013
     27 C22         6.3281   -5.3692   -7.3817 C.ar      1 <0>        -0.1055
     28 C23         7.4962   -4.6491   -7.2016 C.ar      1 <0>        -0.0236
     29 C24         7.8061   -4.1581   -5.9567 C.ar      1 <0>        -0.1284
     30 S1          9.1592   -3.2125   -5.3004 S.3       1 <0>        -0.0024
     31 C25         8.5901   -3.1117   -3.6110 C.2       1 <0>         0.5392
     32 O3          9.1170   -2.5632   -2.6607 O.2       1 <0>        -0.4370
     33 Cl1         4.0255   -6.4831   -6.5148 Cl        1 <0>        -0.0470
     34 H1         -0.4488    2.3032    0.3336 H         1 <0>         0.1401
     35 H2          1.8105    3.2722    0.1943 H         1 <0>         0.1404
     36 H3          3.7746    1.7969    0.0238 H         1 <0>         0.1372
     37 H4          1.2194   -1.6164    0.1245 H         1 <0>         0.1348
     38 H5         -0.7448   -0.1410    0.2936 H         1 <0>         0.1411
     39 H6          4.7223   -0.2985   -0.1284 H         1 <0>         0.0998
     40 H7          3.9840   -1.1468    2.0930 H         1 <0>         0.0843
     41 H8          3.0181   -2.4025    1.2820 H         1 <0>         0.0752
     42 H9          6.0395   -2.0538    1.0207 H         1 <0>         0.0775
     43 H10         5.2258   -3.2826    2.0199 H         1 <0>         0.0961
     44 H11         5.9475   -4.1564   -0.2313 H         1 <0>         0.0991
     45 H12         4.1884   -4.2722    0.0322 H         1 <0>         0.0888
     46 H13         2.7342   -2.3345   -1.2363 H         1 <0>         0.0985
     47 H14         4.5975   -0.2764   -2.4990 H         1 <0>         0.1362
     48 H15         3.8046   -1.5785   -3.4178 H         1 <0>         0.1712
     49 H16         1.4771   -1.5771   -3.7500 H         1 <0>         0.1402
     50 H17         1.2690   -1.6987   -1.9861 H         1 <0>         0.1338
     51 H18        -0.7792   -0.8164   -3.1091 H         1 <0>         0.1413
     52 H19        -0.0750    0.3692   -1.9824 H         1 <0>         0.0815
     53 H20         1.3947    2.2991   -4.7223 H         1 <0>         0.1436
     54 H21         1.2293    2.2385   -2.9503 H         1 <0>         0.0764
     55 H22         3.4705    1.4563   -3.6197 H         1 <0>         0.1382
     56 H23         2.7401    0.2330   -4.6873 H         1 <0>         0.1398
     57 H24         7.2857   -3.8695   -1.5621 H         1 <0>         0.1358
     58 H25         6.1530   -4.9295   -2.4348 H         1 <0>         0.1309
     59 H26         5.1322   -5.2693   -4.2240 H         1 <0>         0.1339
     60 H27         6.0716   -5.7616   -8.3547 H         1 <0>         0.1555
     61 H28         8.1602   -4.4739   -8.0351 H         1 <0>         0.1545
     62 H29         2.3869    0.3982   -1.7769 H         1 <0>         0.4101
@<TRIPOS>BOND
     1    1    6 ar
     2    1    2 ar
     3    1   34 1
     4    2    3 ar
     5    2   35 1
     6    3    4 ar
     7    3   36 1
     8    4    5 ar
     9    4    7 1
    10    5    6 ar
    11    5   37 1
    12    6   38 1
    13    7   12 1
    14    7    8 1
    15    7   39 1
    16    8    9 1
    17    8   40 1
    18    8   41 1
    19    9   10 1
    20    9   42 1
    21    9   43 1
    22   10   11 1
    23   10   44 1
    24   10   45 1
    25   11   12 1
    26   11   20 am
    27   12   13 1
    28   12   46 1
    29   13   14 1
    30   13   47 1
    31   13   48 1
    32   14   19 1
    33   14   15 1
    34   14   62 1
    35   15   16 1
    36   15   49 1
    37   15   50 1
    38   16   17 1
    39   16   51 1
    40   16   52 1
    41   17   18 1
    42   18   19 1
    43   18   53 1
    44   18   54 1
    45   19   55 1
    46   19   56 1
    47   20   21 2
    48   20   22 1
    49   22   23 1
    50   22   57 1
    51   22   58 1
    52   23   31 am
    53   23   24 1
    54   24   29 ar
    55   24   25 ar
    56   25   26 ar
    57   25   59 1
    58   26   27 ar
    59   26   33 1
    60   27   28 ar
    61   27   60 1
    62   28   29 ar
    63   28   61 1
    64   29   30 1
    65   30   31 1
    66   31   32 2
@<TRIPOS>MOLECULE
CHEMBL255460
   61    65     0     0     0
SMALL
USER_CHARGES

@<TRIPOS>ATOM
      1 C1         -0.0809    1.4373   -0.3971 C.ar      1 <0>        -0.1193
      2 C2         -0.0331    0.1705    0.1541 C.ar      1 <0>        -0.1196
      3 C3          1.1734   -0.4979    0.2467 C.ar      1 <0>        -0.1144
      4 C4          2.3320    0.1004   -0.2122 C.ar      1 <0>        -0.0796
      5 C5          2.2840    1.3668   -0.7642 C.ar      1 <0>        -0.1120
      6 C6          1.0778    2.0357   -0.8556 C.ar      1 <0>        -0.1162
      7 C7          3.6474   -0.6279   -0.1102 C.3       1 <0>        -0.0554
      8 C8          3.7403   -1.3269    1.2480 C.3       1 <0>        -0.1142
      9 C9          5.0896   -2.0395    1.3656 C.3       1 <0>        -0.1369
     10 C10         5.1991   -3.1014    0.2669 C.3       1 <0>         0.1041
     11 N1          4.9665   -2.4608   -1.0347 N.am      1 <0>        -0.5857
     12 C11         3.7406   -1.6737   -1.2257 C.3       1 <0>         0.1594
     13 C12         2.5230   -2.5981   -1.1652 C.3       1 <0>         0.0402
     14 N2          2.6733   -3.6715   -2.1567 N.3       1 <0>        -0.5271
     15 C13         2.6293   -3.1351   -3.5247 C.3       1 <0>         0.0123
     16 C14         2.8489   -4.2759   -4.5218 C.3       1 <0>         0.0707
     17 O1          1.8622   -5.2883   -4.3052 O.3       1 <0>        -0.3825
     18 C15         1.8773   -5.8333   -2.9830 C.3       1 <0>         0.0661
     19 C16         1.6478   -4.7083   -1.9704 C.3       1 <0>         0.0184
     20 C17         5.8608   -2.5922   -2.0344 C.2       1 <0>         0.5110
     21 O2          5.6573   -2.0585   -3.1043 O.2       1 <0>        -0.5225
     22 C18         7.1138   -3.4024   -1.8228 C.3       1 <0>         0.0746
     23 N3          7.9151   -3.3919   -3.0492 N.am      1 <0>        -0.5257
     24 C19         7.7131   -4.3702   -4.0080 C.ar      1 <0>         0.1530
     25 C20         6.7961   -5.4338   -3.9699 C.ar      1 <0>        -0.1113
     26 C21         6.7134   -6.3321   -5.0081 C.ar      1 <0>         0.0026
     27 C22         7.5287   -6.2189   -6.1227 C.ar      1 <0>        -0.1114
     28 C23         8.4414   -5.1804   -6.1867 C.ar      1 <0>        -0.0272
     29 C24         8.5235   -4.2836   -5.1495 C.ar      1 <0>        -0.1291
     30 S1          9.5210   -2.8490   -4.8292 S.3       1 <0>        -0.0227
     31 C25         8.8371   -2.4269   -3.2348 C.2       1 <0>         0.5464
     32 O3          9.1310   -1.5021   -2.5001 O.2       1 <0>        -0.4387
     33 Cl1         5.5665   -7.6323   -4.9201 Cl        1 <0>        -0.0490
     34 H1         -1.0242    1.9576   -0.4737 H         1 <0>         0.1218
     35 H2         -0.9383   -0.2970    0.5126 H         1 <0>         0.1217
     36 H3          1.2108   -1.4873    0.6780 H         1 <0>         0.1214
     37 H4          3.1893    1.8344   -1.1224 H         1 <0>         0.1213
     38 H5          1.0404    3.0253   -1.2865 H         1 <0>         0.1229
     39 H6          4.4663    0.0845   -0.2101 H         1 <0>         0.0870
     40 H7          3.6495   -0.5876    2.0439 H         1 <0>         0.0725
     41 H8          2.9354   -2.0564    1.3368 H         1 <0>         0.0698
     42 H9          5.8952   -1.3142    1.2522 H         1 <0>         0.0709
     43 H10         5.1646   -2.5176    2.3423 H         1 <0>         0.0818
     44 H11         6.1954   -3.5432    0.2838 H         1 <0>         0.0818
     45 H12         4.4506   -3.8764    0.4317 H         1 <0>         0.0779
     46 H13         3.7746   -1.1736   -2.1936 H         1 <0>         0.1015
     47 H14         2.4457   -3.0324   -0.1684 H         1 <0>         0.0812
     48 H15         1.6212   -2.0259   -1.3831 H         1 <0>         0.0561
     49 H16         1.6569   -2.6765   -3.7047 H         1 <0>         0.0386
     50 H17         3.4132   -2.3879   -3.6481 H         1 <0>         0.0979
     51 H18         2.7603   -3.8929   -5.5384 H         1 <0>         0.0942
     52 H19         3.8428   -4.6995   -4.3771 H         1 <0>         0.0564
     53 H20         1.0859   -6.5767   -2.8868 H         1 <0>         0.0957
     54 H21         2.8429   -6.3021   -2.7936 H         1 <0>         0.0571
     55 H22         1.7152   -5.1094   -0.9591 H         1 <0>         0.0831
     56 H23         0.6597   -4.2749   -2.1255 H         1 <0>         0.0420
     57 H24         7.6927   -2.9699   -1.0068 H         1 <0>         0.1254
     58 H25         6.8449   -4.4289   -1.5733 H         1 <0>         0.1213
     59 H26         6.1477   -5.5479   -3.1137 H         1 <0>         0.1379
     60 H27         7.4532   -6.9317   -6.9306 H         1 <0>         0.1518
     61 H28         9.0851   -5.0755   -7.0475 H         1 <0>         0.1507
@<TRIPOS>BOND
     1    1    6 ar
     2    1    2 ar
     3    1   34 1
     4    2    3 ar
     5    2   35 1
     6    3    4 ar
     7    3   36 1
     8    4    5 ar
     9    4    7 1
    10    5    6 ar
    11    5   37 1
    12    6   38 1
    13    7   12 1
    14    7    8 1
    15    7   39 1
    16    8    9 1
    17    8   40 1
    18    8   41 1
    19    9   10 1
    20    9   42 1
    21    9   43 1
    22   10   11 1
    23   10   44 1
    24   10   45 1
    25   11   12 1
    26   11   20 am
    27   12   13 1
    28   12   46 1
    29   13   14 1
    30   13   47 1
    31   13   48 1
    32   14   19 1
    33   14   15 1
    34   15   16 1
    35   15   49 1
    36   15   50 1
    37   16   17 1
    38   16   51 1
    39   16   52 1
    40   17   18 1
    41   18   19 1
    42   18   53 1
    43   18   54 1
    44   19   55 1
    45   19   56 1
    46   20   21 2
    47   20   22 1
    48   22   23 1
    49   22   57 1
    50   22   58 1
    51   23   31 am
    52   23   24 1
    53   24   29 ar
    54   24   25 ar
    55   25   26 ar
    56   25   59 1
    57   26   27 ar
    58   26   33 1
    59   27   28 ar
    60   27   60 1
    61   28   29 ar
    62   28   61 1
    63   29   30 1
    64   30   31 1
    65   31   32 2
@<TRIPOS>MOLECULE
CHEMBL255460
   62    66     0     0     0
SMALL
USER_CHARGES

@<TRIPOS>ATOM
      1 C1         -0.0902    1.4447   -0.4712 C.ar      1 <0>        -0.1090
      2 C2         -0.0461    0.1870    0.1008 C.ar      1 <0>        -0.1136
      3 C3          1.1598   -0.4793    0.2130 C.ar      1 <0>        -0.1327
      4 C4          2.3216    0.1118   -0.2473 C.ar      1 <0>        -0.0996
      5 C5          2.2773    1.3690   -0.8202 C.ar      1 <0>        -0.1059
      6 C6          1.0716    2.0360   -0.9310 C.ar      1 <0>        -0.1072
      7 C7          3.6364   -0.6143   -0.1241 C.3       1 <0>        -0.0453
      8 C8          3.7170   -1.2965    1.2435 C.3       1 <0>        -0.1197
      9 C9          5.0655   -2.0067    1.3824 C.3       1 <0>        -0.1410
     10 C10         5.1859   -3.0819    0.2979 C.3       1 <0>         0.0916
     11 N1          4.9651   -2.4575   -1.0136 N.am      1 <0>        -0.6244
     12 C11         3.7406   -1.6737   -1.2257 C.3       1 <0>         0.1280
     13 C12         2.5230   -2.5981   -1.1652 C.3       1 <0>        -0.0309
     14 N2          2.6733   -3.6715   -2.1567 N.4       1 <0>        -0.3829
     15 C13         2.6563   -3.0958   -3.5085 C.3       1 <0>        -0.0561
     16 C14         2.8133   -4.2162   -4.5396 C.3       1 <0>         0.0420
     17 O1          1.7633   -5.1711   -4.3620 O.3       1 <0>        -0.3508
     18 C15         1.7236   -5.7432   -3.0517 C.3       1 <0>         0.0360
     19 C16         1.5645   -4.6257   -2.0178 C.3       1 <0>        -0.0459
     20 C17         5.8688   -2.6007   -2.0032 C.2       1 <0>         0.4975
     21 O2          5.6750   -2.0803   -3.0814 O.2       1 <0>        -0.5040
     22 C18         7.1202   -3.4074   -1.7700 C.3       1 <0>         0.0734
     23 N3          7.9329   -3.4114   -2.9889 N.am      1 <0>        -0.5306
     24 C19         7.7405   -4.4016   -3.9374 C.ar      1 <0>         0.1460
     25 C20         6.8237   -5.4653   -3.8947 C.ar      1 <0>        -0.1259
     26 C21         6.7512   -6.3763   -4.9226 C.ar      1 <0>         0.0001
     27 C22         7.5768   -6.2763   -6.0309 C.ar      1 <0>        -0.1046
     28 C23         8.4894   -5.2380   -6.0991 C.ar      1 <0>        -0.0190
     29 C24         8.5614   -4.3285   -5.0723 C.ar      1 <0>        -0.1270
     30 S1          9.5551   -2.8894   -4.7604 S.3       1 <0>         0.0036
     31 C25         8.8561   -2.4482   -3.1777 C.2       1 <0>         0.5406
     32 O3          9.1426   -1.5142   -2.4517 O.2       1 <0>        -0.4304
     33 Cl1         5.6043   -7.6761   -4.8293 Cl        1 <0>        -0.0484
     34 H1         -1.0330    1.9634   -0.5629 H         1 <0>         0.1288
     35 H2         -0.9537   -0.2748    0.4605 H         1 <0>         0.1274
     36 H3          1.1944   -1.4616    0.6606 H         1 <0>         0.1200
     37 H4          3.1850    1.8310   -1.1794 H         1 <0>         0.1257
     38 H5          1.0371    3.0184   -1.3783 H         1 <0>         0.1296
     39 H6          4.4558    0.0974   -0.2250 H         1 <0>         0.1046
     40 H7          3.6184   -0.5475    2.0293 H         1 <0>         0.0879
     41 H8          2.9117   -2.0254    1.3337 H         1 <0>         0.0683
     42 H9          5.8718   -1.2823    1.2676 H         1 <0>         0.0813
     43 H10         5.1316   -2.4727    2.3656 H         1 <0>         0.0936
     44 H11         6.1822   -3.5229    0.3296 H         1 <0>         0.0999
     45 H12         4.4363   -3.8553    0.4653 H         1 <0>         0.0766
     46 H13         3.7833   -1.1855   -2.1993 H         1 <0>         0.1270
     47 H14         2.4457   -3.0324   -0.1684 H         1 <0>         0.1390
     48 H15         1.6212   -2.0259   -1.3831 H         1 <0>         0.1525
     49 H16         1.7097   -2.5808   -3.6724 H         1 <0>         0.1417
     50 H17         3.4785   -2.3879   -3.6126 H         1 <0>         0.1490
     51 H18         2.7578   -3.7967   -5.5442 H         1 <0>         0.1433
     52 H19         3.7775   -4.7054   -4.4016 H         1 <0>         0.0768
     53 H20         0.8794   -6.4289   -2.9794 H         1 <0>         0.1441
     54 H21         2.6505   -6.2847   -2.8627 H         1 <0>         0.0784
     55 H22         1.5763   -5.0534   -1.0153 H         1 <0>         0.1418
     56 H23         0.6184   -4.1101   -2.1823 H         1 <0>         0.1426
     57 H24         7.6912   -2.9645   -0.9540 H         1 <0>         0.1370
     58 H25         6.8496   -4.4309   -1.5104 H         1 <0>         0.1257
     59 H26         6.1674   -5.5692   -3.0434 H         1 <0>         0.1275
     60 H27         7.5092   -6.9990   -6.8306 H         1 <0>         0.1567
     61 H28         9.1412   -5.1432   -6.9551 H         1 <0>         0.1562
     62 H29         3.5492   -4.1491   -2.0053 H         1 <0>         0.4132
@<TRIPOS>BOND
     1    1    6 ar
     2    1    2 ar
     3    1   34 1
     4    2    3 ar
     5    2   35 1
     6    3    4 ar
     7    3   36 1
     8    4    5 ar
     9    4    7 1
    10    5    6 ar
    11    5   37 1
    12    6   38 1
    13    7   12 1
    14    7    8 1
    15    7   39 1
    16    8    9 1
    17    8   40 1
    18    8   41 1
    19    9   10 1
    20    9   42 1
    21    9   43 1
    22   10   11 1
    23   10   44 1
    24   10   45 1
    25   11   12 1
    26   11   20 am
    27   12   13 1
    28   12   46 1
    29   13   14 1
    30   13   47 1
    31   13   48 1
    32   14   19 1
    33   14   15 1
    34   14   62 1
    35   15   16 1
    36   15   49 1
    37   15   50 1
    38   16   17 1
    39   16   51 1
    40   16   52 1
    41   17   18 1
    42   18   19 1
    43   18   53 1
    44   18   54 1
    45   19   55 1
    46   19   56 1
    47   20   21 2
    48   20   22 1
    49   22   23 1
    50   22   57 1
    51   22   58 1
    52   23   31 am
    53   23   24 1
    54   24   29 ar
    55   24   25 ar
    56   25   26 ar
    57   25   59 1
    58   26   27 ar
    59   26   33 1
    60   27   28 ar
    61   27   60 1
    62   28   29 ar
    63   28   61 1
    64   29   30 1
    65   30   31 1
    66   31   32 2
@<TRIPOS>MOLECULE
CHEMBL1223002
   78    83     0     0     0
SMALL
USER_CHARGES

@<TRIPOS>ATOM
      1 C1          3.7459   -0.0267    2.0930 C.3       1 <0>         0.0262
      2 O1          3.4525   -1.3934    1.7962 O.3       1 <0>        -0.3178
      3 C2          2.2108   -1.8419    2.1184 C.ar      1 <0>         0.1243
      4 C3          1.2915   -0.9825    2.7029 C.ar      1 <0>        -0.1980
      5 C4          0.0299   -1.4407    3.0291 C.ar      1 <0>        -0.0801
      6 C5         -0.3173   -2.7546    2.7734 C.ar      1 <0>        -0.1348
      7 C6          0.5969   -3.6129    2.1915 C.ar      1 <0>        -0.0806
      8 C7          1.8583   -3.1580    1.8582 C.ar      1 <0>        -0.1259
      9 C8          0.2154   -5.0443    1.9148 C.3       1 <0>         0.1725
     10 N1         -0.3640   -5.1446    0.5730 N.am      1 <0>        -0.5328
     11 C9         -1.7128   -5.0041    0.2549 C.ar      1 <0>         0.0950
     12 C10        -2.8471   -4.7495    1.0106 C.ar      1 <0>        -0.1025
     13 C11        -4.0796   -4.6647    0.3933 C.ar      1 <0>        -0.1052
     14 C12        -4.1873   -4.8332   -0.9767 C.ar      1 <0>        -0.1075
     15 C13        -3.0632   -5.0875   -1.7376 C.ar      1 <0>        -0.1057
     16 C14        -1.8213   -5.1736   -1.1268 C.ar      1 <0>         0.0866
     17 N2         -0.5351   -5.4118   -1.6054 N.am      1 <0>        -0.5378
     18 C15         0.3173   -5.3826   -0.5636 C.2       1 <0>         0.6845
     19 O2          1.5204   -5.5493   -0.6377 O.2       1 <0>        -0.5509
     20 C16        -0.1710   -5.6477   -3.0047 C.3       1 <0>         0.1704
     21 C17         0.4798   -7.0265   -3.1367 C.3       1 <0>        -0.1518
     22 C18         0.8277   -7.2839   -4.6063 C.3       1 <0>         0.1162
     23 N3          1.6577   -6.1753   -5.0970 N.am      1 <0>        -0.6065
     24 C19         1.1660   -4.8001   -4.9370 C.3       1 <0>         0.1093
     25 C20         0.8144   -4.5705   -3.4637 C.3       1 <0>        -0.1537
     26 C21         2.8477   -6.4154   -5.6824 C.2       1 <0>         0.5215
     27 O3          3.2791   -7.5475   -5.7374 O.2       1 <0>        -0.5249
     28 C22         3.6422   -5.2770   -6.2688 C.3       1 <0>        -0.1250
     29 C23         3.1195   -4.9571   -7.6722 C.3       1 <0>        -0.1371
     30 C24         3.9809   -3.8549   -8.2925 C.3       1 <0>        -0.0030
     31 N4          5.3742   -4.3084   -8.3793 N.4       1 <0>        -0.3834
     32 C25         5.9048   -4.5484   -7.0320 C.3       1 <0>        -0.0119
     33 C26         5.1174   -5.6773   -6.3632 C.3       1 <0>        -0.1285
     34 C27         6.1822   -3.2785   -9.0459 C.3       1 <0>         0.0434
     35 C28         7.5848   -3.7919   -9.2460 C.ar      1 <0>        -0.1123
     36 C29         8.5569   -3.5975   -8.2766 C.ar      1 <0>        -0.1546
     37 C30         9.8324   -4.0825   -8.4951 C.ar      1 <0>         0.1151
     38 N5         10.1290   -4.7227   -9.6092 N.ar      1 <0>        -0.4580
     39 C31         9.2302   -4.9259  -10.5525 C.ar      1 <0>         0.1163
     40 C32         7.9325   -4.4750  -10.4014 C.ar      1 <0>        -0.1499
     41 H1          4.7669    0.2006    1.7862 H         1 <0>         0.1016
     42 H2          3.0524    0.6190    1.5543 H         1 <0>         0.0552
     43 H3          3.6423    0.1427    3.1647 H         1 <0>         0.0582
     44 H4          1.5623    0.0436    2.9031 H         1 <0>         0.1302
     45 H5         -0.6858   -0.7722    3.4844 H         1 <0>         0.1295
     46 H6         -1.3042   -3.1109    3.0292 H         1 <0>         0.1249
     47 H7          2.5706   -3.8277    1.3995 H         1 <0>         0.1336
     48 H8          1.1023   -5.6750    1.9757 H         1 <0>         0.1050
     49 H9         -0.5165   -5.3743    2.6521 H         1 <0>         0.1034
     50 H10        -2.7670   -4.6182    2.0796 H         1 <0>         0.1302
     51 H11        -4.9632   -4.4664    0.9817 H         1 <0>         0.1355
     52 H12        -5.1546   -4.7657   -1.4523 H         1 <0>         0.1346
     53 H13        -3.1512   -5.2191   -2.8059 H         1 <0>         0.1271
     54 H14        -1.0668   -5.6083   -3.6246 H         1 <0>         0.1004
     55 H15         1.3892   -7.0585   -2.5366 H         1 <0>         0.0895
     56 H16        -0.2140   -7.7912   -2.7877 H         1 <0>         0.0857
     57 H17         1.3798   -8.2198   -4.6926 H         1 <0>         0.1030
     58 H18        -0.0886   -7.3423   -5.1938 H         1 <0>         0.0775
     59 H19         1.9413   -4.0970   -5.2414 H         1 <0>         0.0890
     60 H20         0.2773   -4.6559   -5.5515 H         1 <0>         0.0806
     61 H21         0.3586   -3.5872   -3.3474 H         1 <0>         0.0846
     62 H22         1.7206   -4.6256   -2.8605 H         1 <0>         0.0906
     63 H23         3.5432   -4.3976   -5.6324 H         1 <0>         0.1130
     64 H24         3.1710   -5.8518   -8.2926 H         1 <0>         0.0982
     65 H25         2.0857   -4.6177   -7.6070 H         1 <0>         0.1186
     66 H26         3.6113   -3.6246   -9.2917 H         1 <0>         0.1382
     67 H27         3.9284   -2.9606   -7.6715 H         1 <0>         0.1336
     68 H28         6.9555   -4.8301   -7.1006 H         1 <0>         0.1343
     69 H29         5.8113   -3.6393   -6.4379 H         1 <0>         0.1324
     70 H30         5.5117   -5.8527   -5.3623 H         1 <0>         0.1175
     71 H31         5.2104   -6.5870   -6.9564 H         1 <0>         0.1018
     72 H32         5.7409   -3.0404  -10.0137 H         1 <0>         0.1433
     73 H33         6.2085   -2.3810   -8.4279 H         1 <0>         0.1414
     74 H34         8.3203   -3.0733   -7.3625 H         1 <0>         0.1457
     75 H35        10.5953   -3.9351   -7.7450 H         1 <0>         0.1697
     76 H36         9.5103   -5.4543  -11.4518 H         1 <0>         0.1700
     77 H37         7.1996   -4.6488  -11.1754 H         1 <0>         0.1462
     78 H38         5.4158   -5.1635   -8.9133 H         1 <0>         0.4249
@<TRIPOS>BOND
     1    1    2 1
     2    1   41 1
     3    1   42 1
     4    1   43 1
     5    2    3 1
     6    3    8 ar
     7    3    4 ar
     8    4    5 ar
     9    4   44 1
    10    5    6 ar
    11    5   45 1
    12    6    7 ar
    13    6   46 1
    14    7    8 ar
    15    7    9 1
    16    8   47 1
    17    9   10 1
    18    9   48 1
    19    9   49 1
    20   10   18 am
    21   10   11 1
    22   11   16 ar
    23   11   12 ar
    24   12   13 ar
    25   12   50 1
    26   13   14 ar
    27   13   51 1
    28   14   15 ar
    29   14   52 1
    30   15   16 ar
    31   15   53 1
    32   16   17 1
    33   17   18 am
    34   17   20 1
    35   18   19 2
    36   20   25 1
    37   20   21 1
    38   20   54 1
    39   21   22 1
    40   21   55 1
    41   21   56 1
    42   22   23 1
    43   22   57 1
    44   22   58 1
    45   23   24 1
    46   23   26 am
    47   24   25 1
    48   24   59 1
    49   24   60 1
    50   25   61 1
    51   25   62 1
    52   26   27 2
    53   26   28 1
    54   28   33 1
    55   28   29 1
    56   28   63 1
    57   29   30 1
    58   29   64 1
    59   29   65 1
    60   30   31 1
    61   30   66 1
    62   30   67 1
    63   31   32 1
    64   31   34 1
    65   31   78 1
    66   32   33 1
    67   32   68 1
    68   32   69 1
    69   33   70 1
    70   33   71 1
    71   34   35 1
    72   34   72 1
    73   34   73 1
    74   35   40 ar
    75   35   36 ar
    76   36   37 ar
    77   36   74 1
    78   37   38 ar
    79   37   75 1
    80   38   39 ar
    81   39   40 ar
    82   39   76 1
    83   40   77 1
@<TRIPOS>MOLECULE
CHEMBL1223002
   77    82     0     0     0
SMALL
USER_CHARGES

@<TRIPOS>ATOM
      1 C1          3.7487   -0.0286    2.0942 C.3       1 <0>         0.0267
      2 O1          3.4550   -1.3952    1.7971 O.3       1 <0>        -0.3159
      3 C2          2.2133   -1.8435    2.1195 C.ar      1 <0>         0.1256
      4 C3          1.2943   -0.9842    2.7045 C.ar      1 <0>        -0.1993
      5 C4          0.0328   -1.4422    3.0308 C.ar      1 <0>        -0.0818
      6 C5         -0.3147   -2.7560    2.7750 C.ar      1 <0>        -0.1360
      7 C6          0.5992   -3.6143    2.1927 C.ar      1 <0>        -0.0797
      8 C7          1.8605   -3.1595    1.8592 C.ar      1 <0>        -0.1249
      9 C8          0.2174   -5.0456    1.9157 C.3       1 <0>         0.1732
     10 N1         -0.3623   -5.1455    0.5740 N.am      1 <0>        -0.5345
     11 C9         -1.7111   -5.0047    0.2563 C.ar      1 <0>         0.0942
     12 C10        -2.8453   -4.7502    1.0123 C.ar      1 <0>        -0.1041
     13 C11        -4.0779   -4.6650    0.3953 C.ar      1 <0>        -0.1091
     14 C12        -4.1859   -4.8331   -0.9746 C.ar      1 <0>        -0.1091
     15 C13        -3.0620   -5.0875   -1.7359 C.ar      1 <0>        -0.1058
     16 C14        -1.8200   -5.1739   -1.1254 C.ar      1 <0>         0.0911
     17 N2         -0.5340   -5.4122   -1.6044 N.am      1 <0>        -0.5363
     18 C15         0.3187   -5.3833   -0.5628 C.2       1 <0>         0.6831
     19 O2          1.5218   -5.5502   -0.6372 O.2       1 <0>        -0.5453
     20 C16        -0.1703   -5.6478   -3.0038 C.3       1 <0>         0.1698
     21 C17         0.4803   -7.0267   -3.1363 C.3       1 <0>        -0.1493
     22 C18         0.8278   -7.2838   -4.6060 C.3       1 <0>         0.1172
     23 N3          1.6579   -6.1753   -5.0967 N.am      1 <0>        -0.6147
     24 C19         1.1664   -4.8000   -4.9362 C.3       1 <0>         0.1119
     25 C20         0.8152   -4.5706   -3.4628 C.3       1 <0>        -0.1518
     26 C21         2.8477   -6.4154   -5.6824 C.2       1 <0>         0.5247
     27 O3          3.2789   -7.5476   -5.7377 O.2       1 <0>        -0.5313
     28 C22         3.6422   -5.2770   -6.2688 C.3       1 <0>        -0.1084
     29 C23         3.1180   -4.9560   -7.6712 C.3       1 <0>        -0.1037
     30 C24         3.9674   -3.8409   -8.2852 C.3       1 <0>         0.0591
     31 N4          5.3692   -4.2730   -8.3541 N.3       1 <0>        -0.5320
     32 C25         5.9085   -4.5414   -7.0149 C.3       1 <0>         0.0515
     33 C26         5.1171   -5.6775   -6.3630 C.3       1 <0>        -0.0982
     34 C27         6.1908   -3.2836   -9.0640 C.3       1 <0>         0.0921
     35 C28         7.5561   -3.8631   -9.3310 C.ar      1 <0>        -0.0346
     36 C29         8.5830   -3.7130   -8.4116 C.ar      1 <0>        -0.1697
     37 C30         9.8219   -4.2581   -8.6908 C.ar      1 <0>         0.0988
     38 N5         10.0324   -4.9137   -9.8154 N.ar      1 <0>        -0.4856
     39 C31         9.0795   -5.0758  -10.7124 C.ar      1 <0>         0.0988
     40 C32         7.8135   -4.5639  -10.4993 C.ar      1 <0>        -0.1516
     41 H1          4.7696    0.1987    1.7872 H         1 <0>         0.1018
     42 H2          3.0552    0.6174    1.5559 H         1 <0>         0.0553
     43 H3          3.6454    0.1406    3.1660 H         1 <0>         0.0566
     44 H4          1.5653    0.0419    2.9048 H         1 <0>         0.1293
     45 H5         -0.6828   -0.7737    3.4865 H         1 <0>         0.1280
     46 H6         -1.3017   -3.1122    3.0309 H         1 <0>         0.1241
     47 H7          2.5727   -3.8293    1.4001 H         1 <0>         0.1351
     48 H8          1.1042   -5.6765    1.9763 H         1 <0>         0.1047
     49 H9         -0.5143   -5.3756    2.6532 H         1 <0>         0.1019
     50 H10        -2.7649   -4.6191    2.0813 H         1 <0>         0.1283
     51 H11        -4.9613   -4.4667    0.9840 H         1 <0>         0.1331
     52 H12        -5.1533   -4.7655   -1.4500 H         1 <0>         0.1330
     53 H13        -3.1503   -5.2188   -2.8042 H         1 <0>         0.1280
     54 H14        -1.0662   -5.6082   -3.6235 H         1 <0>         0.0997
     55 H15         1.3899   -7.0589   -2.5364 H         1 <0>         0.0880
     56 H16        -0.2135   -7.7914   -2.7873 H         1 <0>         0.0806
     57 H17         1.3797   -8.2198   -4.6926 H         1 <0>         0.1004
     58 H18        -0.0886   -7.3420   -5.1933 H         1 <0>         0.0713
     59 H19         1.9418   -4.0970   -5.2407 H         1 <0>         0.0938
     60 H20         0.2776   -4.6555   -5.5505 H         1 <0>         0.0751
     61 H21         0.3596   -3.5873   -3.3462 H         1 <0>         0.0808
     62 H22         1.7215   -4.6260   -2.8599 H         1 <0>         0.0892
     63 H23         3.5435   -4.3979   -5.6320 H         1 <0>         0.0904
     64 H24         3.1807   -5.8471   -8.2959 H         1 <0>         0.0811
     65 H25         2.0803   -4.6290   -7.6058 H         1 <0>         0.0734
     66 H26         3.6057   -3.6198   -9.2894 H         1 <0>         0.0825
     67 H27         3.8933   -2.9459   -7.6674 H         1 <0>         0.0376
     68 H28         6.9567   -4.8292   -7.0965 H         1 <0>         0.0834
     69 H29         5.8253   -3.6432   -6.4031 H         1 <0>         0.0356
     70 H30         5.5076   -5.8660   -5.3630 H         1 <0>         0.0716
     71 H31         5.2112   -6.5799   -6.9671 H         1 <0>         0.0854
     72 H32         5.7138   -3.0267  -10.0099 H         1 <0>         0.0897
     73 H33         6.2899   -2.3872   -8.4518 H         1 <0>         0.0488
     74 H34         8.4169   -3.1766   -7.4890 H         1 <0>         0.1310
     75 H35        10.6270   -4.1456   -7.9798 H         1 <0>         0.1551
     76 H36         9.2896   -5.6185  -11.6222 H         1 <0>         0.1560
     77 H37         7.0359   -4.7043  -11.2354 H         1 <0>         0.1355
@<TRIPOS>BOND
     1    1    2 1
     2    1   41 1
     3    1   42 1
     4    1   43 1
     5    2    3 1
     6    3    8 ar
     7    3    4 ar
     8    4    5 ar
     9    4   44 1
    10    5    6 ar
    11    5   45 1
    12    6    7 ar
    13    6   46 1
    14    7    8 ar
    15    7    9 1
    16    8   47 1
    17    9   10 1
    18    9   48 1
    19    9   49 1
    20   10   18 am
    21   10   11 1
    22   11   16 ar
    23   11   12 ar
    24   12   13 ar
    25   12   50 1
    26   13   14 ar
    27   13   51 1
    28   14   15 ar
    29   14   52 1
    30   15   16 ar
    31   15   53 1
    32   16   17 1
    33   17   18 am
    34   17   20 1
    35   18   19 2
    36   20   25 1
    37   20   21 1
    38   20   54 1
    39   21   22 1
    40   21   55 1
    41   21   56 1
    42   22   23 1
    43   22   57 1
    44   22   58 1
    45   23   24 1
    46   23   26 am
    47   24   25 1
    48   24   59 1
    49   24   60 1
    50   25   61 1
    51   25   62 1
    52   26   27 2
    53   26   28 1
    54   28   33 1
    55   28   29 1
    56   28   63 1
    57   29   30 1
    58   29   64 1
    59   29   65 1
    60   30   31 1
    61   30   66 1
    62   30   67 1
    63   31   32 1
    64   31   34 1
    65   32   33 1
    66   32   68 1
    67   32   69 1
    68   33   70 1
    69   33   71 1
    70   34   35 1
    71   34   72 1
    72   34   73 1
    73   35   40 ar
    74   35   36 ar
    75   36   37 ar
    76   36   74 1
    77   37   38 ar
    78   37   75 1
    79   38   39 ar
    80   39   40 ar
    81   39   76 1
    82   40   77 1
@<TRIPOS>MOLECULE
CHEMBL538632
   78    82     0     0     0
SMALL
USER_CHARGES

@<TRIPOS>ATOM
      1 C1         -0.1465    1.2669   -0.6775 C.3       1 <0>        -0.1356
      2 C2         -0.0087   -0.2557   -0.6197 C.3       1 <0>        -0.0649
      3 C3          0.5501   -0.6658    0.7443 C.3       1 <0>        -0.1401
      4 C4         -1.3814   -0.9001   -0.8231 C.3       1 <0>        -0.1253
      5 S1          1.1196   -0.8109   -1.9271 S.3       1 <0>        -0.0788
      6 C5          2.6721   -0.1099   -1.4764 C.2       1 <0>        -0.2134
      7 C6          3.1430    1.2443   -1.7908 C.ar      1 <0>        -0.0299
      8 C7          2.5881    2.3255   -2.4788 C.ar      1 <0>        -0.1050
      9 C8          3.3083    3.4963   -2.6047 C.ar      1 <0>         0.1009
     10 C9          4.5814    3.6004   -2.0497 C.ar      1 <0>        -0.1869
     11 C10         5.1385    2.5409   -1.3697 C.ar      1 <0>        -0.0858
     12 C11         4.4282    1.3524   -1.2311 C.ar      1 <0>         0.0717
     13 N1          4.7121    0.1483   -0.6222 N.pl3     1 <0>        -0.4701
     14 C12         3.6494   -0.7127   -0.7732 C.2       1 <0>         0.1938
     15 C13         3.5898   -2.1194   -0.2357 C.3       1 <0>        -0.0406
     16 C14         4.0942   -3.0944   -1.3014 C.3       1 <0>        -0.1221
     17 C15         3.2778   -2.9161   -2.5831 C.3       1 <0>        -0.1206
     18 C16         5.5694   -2.8126   -1.5931 C.3       1 <0>        -0.1285
     19 C17         3.9421   -4.5079   -0.8014 C.2       1 <0>         0.5077
     20 O1          3.7487   -5.4164   -1.5912 O.co2     1 <0>        -0.6898
     21 O2          4.0124   -4.7429    0.3928 O.co2     1 <0>        -0.6996
     22 C18         5.9564   -0.1655    0.0845 C.3       1 <0>         0.1368
     23 C19         5.8609    0.3180    1.5087 C.ar      1 <0>        -0.1028
     24 C20         6.1695    1.6316    1.8126 C.ar      1 <0>        -0.0954
     25 C21         6.0837    2.0797    3.1152 C.ar      1 <0>        -0.1104
     26 C22         5.6849    1.2062    4.1248 C.ar      1 <0>        -0.0420
     27 C23         5.3748   -0.1159    3.8130 C.ar      1 <0>        -0.1049
     28 C24         5.4594   -0.5521    2.5062 C.ar      1 <0>        -0.0914
     29 C25         5.5914    1.6821    5.5273 C.ar      1 <0>        -0.0900
     30 C26         5.1979    0.8119    6.5477 C.ar      1 <0>        -0.0684
     31 C27         5.1261    1.3045    7.8392 C.ar      1 <0>        -0.1673
     32 C28         5.4432    2.6297    8.0765 C.ar      1 <0>         0.0929
     33 N2          5.8115    3.4272    7.0927 N.ar      1 <0>        -0.4825
     34 C29         5.8998    3.0019    5.8489 C.ar      1 <0>         0.1064
     35 O3          2.7728    4.5523   -3.2738 O.3       1 <0>        -0.3149
     36 C30         3.5713    5.7336   -3.3671 C.3       1 <0>         0.1157
     37 C31         2.8195    6.7886   -4.1372 C.ar      1 <0>         0.1253
     38 C32         1.5523    6.5125   -4.6152 C.ar      1 <0>        -0.1471
     39 C33         0.8693    7.4898   -5.3223 C.ar      1 <0>        -0.0751
     40 C34         1.4892    8.7139   -5.5231 C.ar      1 <0>        -0.1755
     41 C35         2.7581    8.9174   -5.0153 C.ar      1 <0>         0.1015
     42 N3          3.3760    7.9662   -4.3425 N.ar      1 <0>        -0.4820
     43 H1          0.8314    1.7260   -0.5326 H         1 <0>         0.0596
     44 H2         -0.5446    1.5591   -1.6492 H         1 <0>         0.0607
     45 H3         -0.8245    1.6005    0.1081 H         1 <0>         0.0513
     46 H4         -0.0825   -0.2592    1.5333 H         1 <0>         0.0537
     47 H5          0.5685   -1.7532    0.8174 H         1 <0>         0.0676
     48 H6          1.5626   -0.2772    0.8539 H         1 <0>         0.0564
     49 H7         -1.7795   -0.6080   -1.7948 H         1 <0>         0.0603
     50 H8         -1.2832   -1.9849   -0.7819 H         1 <0>         0.0656
     51 H9         -2.0594   -0.5666   -0.0375 H         1 <0>         0.0636
     52 H10         1.6013    2.2459   -2.9103 H         1 <0>         0.1313
     53 H11         5.1370    4.5206   -2.1540 H         1 <0>         0.1278
     54 H12         6.1268    2.6321   -0.9438 H         1 <0>         0.1188
     55 H13         4.2168   -2.1958    0.6526 H         1 <0>         0.0740
     56 H14         2.5602   -2.3657    0.0240 H         1 <0>         0.0939
     57 H15         3.4571   -1.9221   -2.9928 H         1 <0>         0.0355
     58 H16         3.5771   -3.6690   -3.3122 H         1 <0>         0.0534
     59 H17         2.2175   -3.0302   -2.3573 H         1 <0>         0.0639
     60 H18         6.1610   -3.0118   -0.6996 H         1 <0>         0.0475
     61 H19         5.9088   -3.4565   -2.4045 H         1 <0>         0.0544
     62 H20         5.6895   -1.7688   -1.8831 H         1 <0>         0.0399
     63 H21         6.1167   -1.2436    0.0768 H         1 <0>         0.1137
     64 H22         6.7910    0.3295   -0.4120 H         1 <0>         0.0944
     65 H23         6.4785    2.3078    1.0292 H         1 <0>         0.1238
     66 H24         6.3256    3.1054    3.3515 H         1 <0>         0.1259
     67 H25         5.0652   -0.7972    4.5917 H         1 <0>         0.1279
     68 H26         5.2153   -1.5756    2.2627 H         1 <0>         0.1360
     69 H27         4.9556   -0.2186    6.3338 H         1 <0>         0.1391
     70 H28         4.8255    0.6611    8.6529 H         1 <0>         0.1378
     71 H29         5.3880    3.0176    9.0829 H         1 <0>         0.1560
     72 H30         6.2099    3.6838    5.0709 H         1 <0>         0.1569
     73 H31         3.7922    6.1030   -2.3657 H         1 <0>         0.0829
     74 H32         4.5033    5.5024   -3.8828 H         1 <0>         0.0835
     75 H33         1.1001    5.5474   -4.4403 H         1 <0>         0.1469
     76 H34        -0.1219    7.3022   -5.7080 H         1 <0>         0.1366
     77 H35         0.9867    9.4982   -6.0698 H         1 <0>         0.1355
     78 H36         3.2477    9.8679   -5.1674 H         1 <0>         0.1583
@<TRIPOS>BOND
     1    1    2 1
     2    1   43 1
     3    1   44 1
     4    1   45 1
     5    2    3 1
     6    2    4 1
     7    2    5 1
     8    3   46 1
     9    3   47 1
    10    3   48 1
    11    4   49 1
    12    4   50 1
    13    4   51 1
    14    5    6 1
    15    6   14 2
    16    6    7 1
    17    7   12 ar
    18    7    8 ar
    19    8    9 ar
    20    8   52 1
    21    9   10 ar
    22    9   35 1
    23   10   11 ar
    24   10   53 1
    25   11   12 ar
    26   11   54 1
    27   12   13 1
    28   13   14 1
    29   13   22 1
    30   14   15 1
    31   15   16 1
    32   15   55 1
    33   15   56 1
    34   16   17 1
    35   16   18 1
    36   16   19 1
    37   17   57 1
    38   17   58 1
    39   17   59 1
    40   18   60 1
    41   18   61 1
    42   18   62 1
    43   19   20 2
    44   19   21 1
    45   22   23 1
    46   22   63 1
    47   22   64 1
    48   23   28 ar
    49   23   24 ar
    50   24   25 ar
    51   24   65 1
    52   25   26 ar
    53   25   66 1
    54   26   27 ar
    55   26   29 1
    56   27   28 ar
    57   27   67 1
    58   28   68 1
    59   29   34 ar
    60   29   30 ar
    61   30   31 ar
    62   30   69 1
    63   31   32 ar
    64   31   70 1
    65   32   33 ar
    66   32   71 1
    67   33   34 ar
    68   34   72 1
    69   35   36 1
    70   36   37 1
    71   36   73 1
    72   36   74 1
    73   37   42 ar
    74   37   38 ar
    75   38   39 ar
    76   38   75 1
    77   39   40 ar
    78   39   76 1
    79   40   41 ar
    80   40   77 1
    81   41   42 ar
    82   41   78 1
@<TRIPOS>MOLECULE
CHEMBL372416
   86    90     0     0     0
SMALL
USER_CHARGES

@<TRIPOS>ATOM
      1 C1         -5.0156   -2.0108    5.7746 C.3       1 <0>         0.0269
      2 O1         -4.3277   -2.8729    4.8660 O.3       1 <0>        -0.3182
      3 C2         -2.9852   -2.6988    4.7469 C.ar      1 <0>         0.1303
      4 C3         -2.3421   -1.7221    5.4937 C.ar      1 <0>        -0.2077
      5 C4         -0.9775   -1.5474    5.3712 C.ar      1 <0>        -0.0800
      6 C5         -0.2521   -2.3451    4.5052 C.ar      1 <0>        -0.1572
      7 C6         -0.8905   -3.3187    3.7598 C.ar      1 <0>        -0.0589
      8 C7         -2.2545   -3.5012    3.8829 C.ar      1 <0>        -0.1229
      9 C8         -2.9488   -4.5669    3.0747 C.3       1 <0>         0.1170
     10 O2         -1.9898   -5.2531    2.2676 O.3       1 <0>        -0.3831
     11 C9         -2.5475   -6.2897    1.4573 C.3       1 <0>         0.0685
     12 C10        -1.4362   -6.9521    0.6405 C.3       1 <0>        -0.1186
     13 C11        -2.0333   -8.0620   -0.2270 C.3       1 <0>         0.0630
     14 O3         -0.9953   -8.6807   -0.9899 O.3       1 <0>        -0.3105
     15 C12        -1.3595   -9.6946   -1.8194 C.ar      1 <0>         0.1358
     16 C13        -2.6895  -10.0806   -1.9001 C.ar      1 <0>        -0.1976
     17 C14        -3.0601  -11.1103   -2.7423 C.ar      1 <0>        -0.0493
     18 C15        -2.1011  -11.7593   -3.5084 C.ar      1 <0>         0.0981
     19 C16        -0.7701  -11.3725   -3.4272 C.ar      1 <0>        -0.0824
     20 C17        -0.4018  -10.3389   -2.5888 C.ar      1 <0>        -0.1422
     21 N1         -2.4764  -12.8045   -4.3628 N.am      1 <0>        -0.5529
     22 C18        -2.0307  -14.1584   -4.0462 C.3       1 <0>         0.1106
     23 H1         -0.9871  -14.2733   -4.3388 H         1 <0>         0.0981
     24 C19        -2.8844  -15.1808   -4.7987 C.3       1 <0>         0.0454
     25 N2         -2.9327  -14.8015   -6.2200 N.3       1 <0>        -0.6729
     26 C20        -3.7131  -13.5685   -6.3892 C.3       1 <0>         0.0474
     27 C21        -3.2311  -12.5184   -5.4289 C.2       1 <0>         0.4854
     28 O4         -3.5354  -11.3619   -5.6319 O.2       1 <0>        -0.5301
     29 C22        -2.1652  -14.3980   -2.5410 C.3       1 <0>         0.0524
     30 O5         -3.5442  -14.3409   -2.1709 O.3       1 <0>        -0.3054
     31 C23        -3.8393  -14.5345   -0.8585 C.ar      1 <0>         0.1701
     32 C24        -2.8222  -14.7691    0.0566 C.ar      1 <0>        -0.2545
     33 C25        -3.1221  -14.9675    1.3891 C.ar      1 <0>        -0.0377
     34 C26        -4.4371  -14.9340    1.8240 C.ar      1 <0>        -0.1848
     35 C27        -5.4551  -14.6969    0.9128 C.ar      1 <0>         0.2554
     36 C28        -5.1554  -14.4928   -0.4289 C.ar      1 <0>        -0.2240
     37 N3         -6.7910  -14.6488    1.3263 N.pl3     1 <0>        -0.6270
     38 C29        -7.1389  -15.1454    2.6645 C.3       1 <0>         0.1257
     39 C30        -6.0994  -14.5991    3.6520 C.3       1 <0>        -0.1368
     40 C31        -4.7262  -15.1607    3.2847 C.3       1 <0>        -0.0675
     41 C32        -7.8260  -14.1123    0.4390 C.3       1 <0>         0.1314
     42 C33        -8.4024  -15.2437   -0.4147 C.3       1 <0>        -0.1427
     43 C34        -9.4833  -14.6834   -1.3413 C.3       1 <0>         0.0776
     44 O6        -10.0217  -15.7401   -2.1386 O.3       1 <0>        -0.5738
     45 H2         -4.8810   -0.9745    5.4646 H         1 <0>         0.0567
     46 H3         -6.0779   -2.2552    5.7738 H         1 <0>         0.1013
     47 H4         -4.6127   -2.1450    6.7785 H         1 <0>         0.0566
     48 H5         -2.9083   -1.0986    6.1699 H         1 <0>         0.1298
     49 H6         -0.4766   -0.7870    5.9520 H         1 <0>         0.1257
     50 H7          0.8149   -2.2070    4.4109 H         1 <0>         0.1259
     51 H8         -0.3219   -3.9402    3.0839 H         1 <0>         0.1396
     52 H9         -3.4318   -5.2759    3.7470 H         1 <0>         0.0638
     53 H10        -3.6996   -4.1051    2.4333 H         1 <0>         0.0640
     54 H11        -3.0221   -7.0346    2.0961 H         1 <0>         0.0539
     55 H12        -3.2899   -5.8637    0.7824 H         1 <0>         0.0542
     56 H13        -0.9616   -6.2073    0.0017 H         1 <0>         0.0847
     57 H14        -0.6938   -7.3781    1.3154 H         1 <0>         0.0844
     58 H15        -2.5079   -8.8068    0.4118 H         1 <0>         0.0654
     59 H16        -2.7756   -7.6360   -0.9019 H         1 <0>         0.0657
     60 H17        -3.4353   -9.5759   -1.3038 H         1 <0>         0.1301
     61 H18        -4.0955  -11.4109   -2.8047 H         1 <0>         0.1235
     62 H19        -0.0237  -11.8772   -4.0226 H         1 <0>         0.1297
     63 H20         0.6328  -10.0350   -2.5288 H         1 <0>         0.1362
     64 H21        -2.4406  -16.1713   -4.6995 H         1 <0>         0.1036
     65 H22        -3.8939  -15.1873   -4.3876 H         1 <0>         0.0982
     66 H23        -2.0031  -14.6957   -6.5978 H         1 <0>         0.3492
     67 H24        -3.6009  -13.2066   -7.4113 H         1 <0>         0.1159
     68 H25        -4.7651  -13.7765   -6.1941 H         1 <0>         0.1135
     69 H26        -1.7625  -15.3798   -2.2920 H         1 <0>         0.0802
     70 H27        -1.6117  -13.6304   -2.0001 H         1 <0>         0.0730
     71 H28        -1.7946  -14.7967   -0.2747 H         1 <0>         0.1214
     72 H29        -2.3271  -15.1503    2.0969 H         1 <0>         0.1222
     73 H30        -5.9490  -14.3061   -1.1372 H         1 <0>         0.1272
     74 H31        -8.1325  -14.7935    2.9421 H         1 <0>         0.0795
     75 H32        -7.1173  -16.2351    2.6710 H         1 <0>         0.0615
     76 H33        -6.0765  -13.5109    3.5933 H         1 <0>         0.0692
     77 H34        -6.3608  -14.9066    4.6646 H         1 <0>         0.0782
     78 H35        -4.7075  -16.2304    3.4933 H         1 <0>         0.0694
     79 H36        -3.9626  -14.6645    3.8837 H         1 <0>         0.0728
     80 H37        -8.6213  -13.6665    1.0363 H         1 <0>         0.0768
     81 H38        -7.3901  -13.3531   -0.2103 H         1 <0>         0.0761
     82 H39        -7.6071  -15.6895   -1.0120 H         1 <0>         0.0751
     83 H40        -8.8383  -16.0029    0.2347 H         1 <0>         0.0717
     84 H41       -10.2786  -14.2376   -0.7440 H         1 <0>         0.0459
     85 H42        -9.0474  -13.9242   -1.9906 H         1 <0>         0.0461
     86 H43       -10.7142  -15.4569   -2.7513 H         1 <0>         0.3818
@<TRIPOS>BOND
     1    1    2 1
     2    1   45 1
     3    1   46 1
     4    1   47 1
     5    2    3 1
     6    3    8 ar
     7    3    4 ar
     8    4    5 ar
     9    4   48 1
    10    5    6 ar
    11    5   49 1
    12    6    7 ar
    13    6   50 1
    14    7    8 ar
    15    7   51 1
    16    8    9 1
    17    9   10 1
    18    9   52 1
    19    9   53 1
    20   10   11 1
    21   11   12 1
    22   11   54 1
    23   11   55 1
    24   12   13 1
    25   12   56 1
    26   12   57 1
    27   13   14 1
    28   13   58 1
    29   13   59 1
    30   14   15 1
    31   15   20 ar
    32   15   16 ar
    33   16   17 ar
    34   16   60 1
    35   17   18 ar
    36   17   61 1
    37   18   19 ar
    38   18   21 1
    39   19   20 ar
    40   19   62 1
    41   20   63 1
    42   21   27 am
    43   21   22 1
    44   22   23 1
    45   22   24 1
    46   22   29 1
    47   24   25 1
    48   24   64 1
    49   24   65 1
    50   25   26 1
    51   25   66 1
    52   26   27 1
    53   26   67 1
    54   26   68 1
    55   27   28 2
    56   29   30 1
    57   29   69 1
    58   29   70 1
    59   30   31 1
    60   31   36 ar
    61   31   32 ar
    62   32   33 ar
    63   32   71 1
    64   33   34 ar
    65   33   72 1
    66   34   40 1
    67   34   35 ar
    68   35   36 ar
    69   35   37 1
    70   36   73 1
    71   37   38 1
    72   37   41 1
    73   38   39 1
    74   38   74 1
    75   38   75 1
    76   39   40 1
    77   39   76 1
    78   39   77 1
    79   40   78 1
    80   40   79 1
    81   41   42 1
    82   41   80 1
    83   41   81 1
    84   42   43 1
    85   42   82 1
    86   42   83 1
    87   43   44 1
    88   43   84 1
    89   43   85 1
    90   44   86 1
@<TRIPOS>MOLECULE
CHEMBL372416
   87    91     0     0     0
SMALL
USER_CHARGES

@<TRIPOS>ATOM
      1 C1          7.6966   -1.9511    1.5262 C.3       1 <0>         0.0265
      2 O1          6.5689   -2.8181    1.3896 O.3       1 <0>        -0.3189
      3 C2          5.7724   -2.6282    0.3050 C.ar      1 <0>         0.1307
      4 C3          6.0735   -1.6316   -0.6123 C.ar      1 <0>        -0.2071
      5 C4          5.2627   -1.4410   -1.7142 C.ar      1 <0>        -0.0786
      6 C5          4.1517   -2.2423   -1.9035 C.ar      1 <0>        -0.1574
      7 C6          3.8493   -3.2356   -0.9908 C.ar      1 <0>        -0.0590
      8 C7          4.6604   -3.4341    0.1100 C.ar      1 <0>        -0.1247
      9 C8          4.3337   -4.5212    1.1013 C.3       1 <0>         0.1180
     10 O2          3.1517   -5.2071    0.6836 O.3       1 <0>        -0.3811
     11 C9          2.7526   -6.2634    1.5595 C.3       1 <0>         0.0686
     12 C10         1.4835   -6.9236    1.0169 C.3       1 <0>        -0.1149
     13 C11         1.0561   -8.0545    1.9547 C.3       1 <0>         0.0654
     14 O3         -0.1292   -8.6712    1.4479 O.3       1 <0>        -0.2931
     15 C12        -0.6449   -9.7025    2.1685 C.ar      1 <0>         0.1610
     16 C13        -0.0246  -10.1072    3.3415 C.ar      1 <0>        -0.2006
     17 C14        -0.5478  -11.1545    4.0737 C.ar      1 <0>        -0.0502
     18 C15        -1.6949  -11.8027    3.6357 C.ar      1 <0>         0.0819
     19 C16        -2.3152  -11.3971    2.4616 C.ar      1 <0>        -0.0473
     20 C17        -1.7942  -10.3460    1.7333 C.ar      1 <0>        -0.1411
     21 N1         -2.2260  -12.8657    4.3780 N.am      1 <0>        -0.5510
     22 C18        -2.1414  -14.2164    3.8281 C.3       1 <0>         0.1186
     23 H1         -2.9031  -14.3425    3.0587 H         1 <0>         0.1192
     24 C19        -2.3649  -15.2454    4.9380 C.3       1 <0>        -0.0165
     25 N2         -3.5968  -14.8994    5.6641 N.4       1 <0>        -0.5024
     26 C20        -3.3620  -13.6776    6.4436 C.3       1 <0>        -0.0144
     27 C21        -2.7857  -12.6042    5.5647 C.2       1 <0>         0.4924
     28 O4         -2.8337  -11.4533    5.9444 O.2       1 <0>        -0.4688
     29 C22        -0.7570  -14.4286    3.2121 C.3       1 <0>         0.0532
     30 O5         -0.6014  -13.5679    2.0821 O.3       1 <0>        -0.2957
     31 C23         0.5347  -13.7100    1.3501 C.ar      1 <0>         0.1606
     32 C24         1.5307  -14.5799    1.7722 C.ar      1 <0>        -0.2590
     33 C25         2.6854  -14.7228    1.0298 C.ar      1 <0>        -0.0388
     34 C26         2.8600  -14.0016   -0.1403 C.ar      1 <0>        -0.1763
     35 C27         1.8656  -13.1341   -0.5662 C.ar      1 <0>         0.2592
     36 C28         0.7002  -12.9914    0.1776 C.ar      1 <0>        -0.2156
     37 N3          2.0119  -12.4004   -1.7486 N.pl3     1 <0>        -0.6226
     38 C29         3.3377  -12.3221   -2.3767 C.3       1 <0>         0.1234
     39 C30         3.9437  -13.7317   -2.3695 C.3       1 <0>        -0.1377
     40 C31         4.1357  -14.1794   -0.9208 C.3       1 <0>        -0.0710
     41 C32         0.8618  -11.7209   -2.3502 C.3       1 <0>         0.1289
     42 C33         0.7573  -10.3014   -1.7889 C.3       1 <0>        -0.1393
     43 C34        -0.4438   -9.5917   -2.4172 C.3       1 <0>         0.0816
     44 O6         -0.5414   -8.2659   -1.8930 O.3       1 <0>        -0.5631
     45 H2          8.3490   -2.0645    0.6603 H         1 <0>         0.0571
     46 H3          7.3550   -0.9180    1.5909 H         1 <0>         0.0573
     47 H4          8.2460   -2.2095    2.4314 H         1 <0>         0.1017
     48 H5          6.9408   -1.0053   -0.4647 H         1 <0>         0.1305
     49 H6          5.4964   -0.6652   -2.4283 H         1 <0>         0.1264
     50 H7          3.5189   -2.0917   -2.7657 H         1 <0>         0.1259
     51 H8          2.9809   -3.8599   -1.1407 H         1 <0>         0.1389
     52 H9          5.1634   -5.2261    1.1540 H         1 <0>         0.0629
     53 H10         4.1693   -4.0793    2.0840 H         1 <0>         0.0634
     54 H11         3.5495   -7.0044    1.6217 H         1 <0>         0.0510
     55 H12         2.5554   -5.8577    2.5517 H         1 <0>         0.0519
     56 H13         0.6866   -6.1826    0.9547 H         1 <0>         0.0843
     57 H14         1.6807   -7.3293    0.0247 H         1 <0>         0.0889
     58 H15         1.8530   -8.7956    2.0169 H         1 <0>         0.0628
     59 H16         0.8589   -7.6488    2.9469 H         1 <0>         0.0635
     60 H17         0.8679   -9.6032    3.6819 H         1 <0>         0.1319
     61 H18        -0.0645  -11.4697    4.9867 H         1 <0>         0.1180
     62 H19        -3.2073  -11.9011    2.1201 H         1 <0>         0.1249
     63 H20        -2.2791  -10.0276    0.8223 H         1 <0>         0.1359
     64 H21        -2.4654  -16.2386    4.5005 H         1 <0>         0.1643
     65 H22        -1.5192  -15.2307    5.6255 H         1 <0>         0.1479
     66 H23        -4.3444  -14.7414    5.0052 H         1 <0>         0.4379
     67 H24        -4.3050  -13.3329    6.8680 H         1 <0>         0.1729
     68 H25        -2.6620  -13.8929    7.2509 H         1 <0>         0.1671
     69 H26         0.0092  -14.1983    3.9524 H         1 <0>         0.0778
     70 H27        -0.6556  -15.4665    2.8951 H         1 <0>         0.0891
     71 H28         1.4020  -15.1456    2.6832 H         1 <0>         0.1174
     72 H29         3.4575  -15.4005    1.3630 H         1 <0>         0.1236
     73 H30        -0.0745  -12.3170   -0.1563 H         1 <0>         0.1296
     74 H31         3.2397  -11.9676   -3.4028 H         1 <0>         0.0828
     75 H32         3.9752  -11.6433   -1.8101 H         1 <0>         0.0631
     76 H33         3.2703  -14.4212   -2.8786 H         1 <0>         0.0706
     77 H34         4.9076  -13.7173   -2.8782 H         1 <0>         0.0812
     78 H35         4.9244  -13.5834   -0.4617 H         1 <0>         0.0714
     79 H36         4.4240  -15.2305   -0.9043 H         1 <0>         0.0751
     80 H37         0.9915  -11.6754   -3.4315 H         1 <0>         0.0784
     81 H38        -0.0490  -12.2720   -2.1163 H         1 <0>         0.0748
     82 H39         0.6277  -10.3468   -0.7076 H         1 <0>         0.0760
     83 H40         1.6681   -9.7502   -2.0228 H         1 <0>         0.0706
     84 H41        -0.3141   -9.5463   -3.4985 H         1 <0>         0.0428
     85 H42        -1.3546  -10.1429   -2.1833 H         1 <0>         0.0407
     86 H43        -1.2825   -7.7562   -2.2481 H         1 <0>         0.3792
     87 H44        -3.8459  -15.6541    6.2857 H         1 <0>         0.4454
@<TRIPOS>BOND
     1    1    2 1
     2    1   45 1
     3    1   46 1
     4    1   47 1
     5    2    3 1
     6    3    8 ar
     7    3    4 ar
     8    4    5 ar
     9    4   48 1
    10    5    6 ar
    11    5   49 1
    12    6    7 ar
    13    6   50 1
    14    7    8 ar
    15    7   51 1
    16    8    9 1
    17    9   10 1
    18    9   52 1
    19    9   53 1
    20   10   11 1
    21   11   12 1
    22   11   54 1
    23   11   55 1
    24   12   13 1
    25   12   56 1
    26   12   57 1
    27   13   14 1
    28   13   58 1
    29   13   59 1
    30   14   15 1
    31   15   20 ar
    32   15   16 ar
    33   16   17 ar
    34   16   60 1
    35   17   18 ar
    36   17   61 1
    37   18   19 ar
    38   18   21 1
    39   19   20 ar
    40   19   62 1
    41   20   63 1
    42   21   27 am
    43   21   22 1
    44   22   23 1
    45   22   24 1
    46   22   29 1
    47   24   25 1
    48   24   64 1
    49   24   65 1
    50   25   26 1
    51   25   66 1
    52   25   87 1
    53   26   27 1
    54   26   67 1
    55   26   68 1
    56   27   28 2
    57   29   30 1
    58   29   69 1
    59   29   70 1
    60   30   31 1
    61   31   36 ar
    62   31   32 ar
    63   32   33 ar
    64   32   71 1
    65   33   34 ar
    66   33   72 1
    67   34   40 1
    68   34   35 ar
    69   35   36 ar
    70   35   37 1
    71   36   73 1
    72   37   38 1
    73   37   41 1
    74   38   39 1
    75   38   74 1
    76   38   75 1
    77   39   40 1
    78   39   76 1
    79   39   77 1
    80   40   78 1
    81   40   79 1
    82   41   42 1
    83   41   80 1
    84   41   81 1
    85   42   43 1
    86   42   82 1
    87   42   83 1
    88   43   44 1
    89   43   84 1
    90   43   85 1
    91   44   86 1
@<TRIPOS>MOLECULE
CHEMBL274189
   48    51     0     0     0
SMALL
USER_CHARGES

@<TRIPOS>ATOM
      1 C1         -0.0173    1.4248    0.0099 C.3       1 <0>         0.0137
      2 O1          0.0021   -0.0041    0.0020 O.3       1 <0>        -0.2890
      3 C2          0.6264   -0.6189    1.0424 C.ar      1 <0>         0.1412
      4 C3          1.2030    0.1518    2.0529 C.ar      1 <0>        -0.1195
      5 C4          1.8395   -0.4342    3.1057 C.ar      1 <0>        -0.0724
      6 C5          1.9219   -1.8319    3.1796 C.ar      1 <0>        -0.0085
      7 C6          2.5870   -2.4874    4.2280 C.ar      1 <0>        -0.0674
      8 C7          2.6297   -3.8697    4.2334 C.ar      1 <0>         0.1478
      9 N1          2.0055   -4.5930    3.2954 N.ar      1 <0>        -0.3315
     10 C8          1.3949   -4.0245    2.2770 C.ar      1 <0>         0.1961
     11 C9          1.3261   -2.6294    2.1659 C.ar      1 <0>        -0.0800
     12 C10         0.6768   -1.9991    1.0886 C.ar      1 <0>         0.0927
     13 O2          0.1095   -2.7400    0.1009 O.3       1 <0>        -0.3138
     14 C11         0.9365   -3.0752   -1.0153 C.3       1 <0>         0.0260
     15 C12         1.9465   -6.0552    3.4004 C.3       1 <0>         0.0539
     16 C13         3.2653   -6.6260    3.9117 C.3       1 <0>        -0.0980
     17 C14         3.6703   -5.9161    5.1772 C.ar      1 <0>        -0.0597
     18 C15         3.3630   -4.5639    5.3213 C.ar      1 <0>        -0.0916
     19 C16         3.7404   -3.8815    6.4740 C.ar      1 <0>        -0.1348
     20 C17         4.4138   -4.5551    7.4785 C.ar      1 <0>         0.1108
     21 C18         4.7098   -5.9080    7.3333 C.ar      1 <0>         0.1459
     22 C19         4.3366   -6.5848    6.1806 C.ar      1 <0>        -0.1656
     23 O3          5.3670   -6.5679    8.3237 O.3       1 <0>        -0.2925
     24 C20         5.6390   -7.9544    8.1099 C.3       1 <0>         0.0190
     25 O4          4.7869   -3.8951    8.6075 O.3       1 <0>        -0.2945
     26 C21         4.4513   -2.5085    8.6893 C.3       1 <0>         0.0200
     27 H1          1.0053    1.8021    0.0021 H         1 <0>         0.0666
     28 H2         -0.5445    1.7859   -0.8732 H         1 <0>         0.1177
     29 H3         -0.5275    1.7763    0.9067 H         1 <0>         0.0677
     30 H4          1.1435    1.2289    1.9999 H         1 <0>         0.1620
     31 H5          2.2795    0.1761    3.8805 H         1 <0>         0.1628
     32 H6          3.0583   -1.9211    5.0176 H         1 <0>         0.1803
     33 H7          0.9409   -4.6422    1.5162 H         1 <0>         0.2111
     34 H8          0.3622   -3.6665   -1.7285 H         1 <0>         0.1111
     35 H9          1.2840   -2.1615   -1.4974 H         1 <0>         0.0603
     36 H10         1.7942   -3.6533   -0.6713 H         1 <0>         0.0474
     37 H11         1.1471   -6.3318    4.0879 H         1 <0>         0.1299
     38 H12         1.7324   -6.4754    2.4177 H         1 <0>         0.1365
     39 H13         3.1451   -7.6900    4.1154 H         1 <0>         0.1261
     40 H14         4.0378   -6.4876    3.1552 H         1 <0>         0.1036
     41 H15         3.5088   -2.8324    6.5844 H         1 <0>         0.1487
     42 H16         4.5680   -7.6339    6.0703 H         1 <0>         0.1531
     43 H17         6.1660   -8.3588    8.9741 H         1 <0>         0.1124
     44 H18         4.7007   -8.4918    7.9725 H         1 <0>         0.0622
     45 H19         6.2578   -8.0703    7.2201 H         1 <0>         0.0623
     46 H20         4.9232   -1.9713    7.8666 H         1 <0>         0.0589
     47 H21         3.3694   -2.3922    8.6261 H         1 <0>         0.0591
     48 H22         4.8054   -2.1043    9.6377 H         1 <0>         0.1118
@<TRIPOS>BOND
     1    1    2 1
     2    1   27 1
     3    1   28 1
     4    1   29 1
     5    2    3 1
     6    3   12 ar
     7    3    4 ar
     8    4    5 ar
     9    4   30 1
    10    5    6 ar
    11    5   31 1
    12    6   11 ar
    13    6    7 ar
    14    7    8 ar
    15    7   32 1
    16    8   18 1
    17    8    9 ar
    18    9   10 ar
    19    9   15 1
    20   10   11 ar
    21   10   33 1
    22   11   12 ar
    23   12   13 1
    24   13   14 1
    25   14   34 1
    26   14   35 1
    27   14   36 1
    28   15   16 1
    29   15   37 1
    30   15   38 1
    31   16   17 1
    32   16   39 1
    33   16   40 1
    34   17   22 ar
    35   17   18 ar
    36   18   19 ar
    37   19   20 ar
    38   19   41 1
    39   20   21 ar
    40   20   25 1
    41   21   22 ar
    42   21   23 1
    43   22   42 1
    44   23   24 1
    45   24   43 1
    46   24   44 1
    47   24   45 1
    48   25   26 1
    49   26   46 1
    50   26   47 1
    51   26   48 1
@<TRIPOS>MOLECULE
CHEMBL206145
   61    65     0     0     0
SMALL
USER_CHARGES

@<TRIPOS>ATOM
      1 C1          2.3742    0.3628    2.1722 C.3       1 <0>        -0.0982
      2 C2          1.6796   -0.8000    1.5117 C.2       1 <0>         0.0913
      3 C3          2.2981   -1.8653    0.9789 C.2       1 <0>        -0.1895
      4 C4          1.2544   -2.7468    0.4494 C.ar      1 <0>        -0.1344
      5 C5          0.0310   -2.1083    0.7202 C.ar      1 <0>         0.1353
      6 N1          0.3242   -0.9291    1.3716 N.pl3     1 <0>        -0.5851
      7 H1         -0.3321   -0.2860    1.6825 H         1 <0>         0.4220
      8 C6         -1.1592   -2.7133    0.3303 C.ar      1 <0>        -0.1205
      9 C7         -1.1350   -3.9295   -0.3159 C.ar      1 <0>        -0.0632
     10 C8          0.0734   -4.5651   -0.5861 C.ar      1 <0>         0.0147
     11 C9          1.2681   -3.9803   -0.2072 C.ar      1 <0>         0.1627
     12 F1          2.4407   -4.5976   -0.4701 F         1 <0>        -0.1259
     13 O1          0.0794   -5.7660   -1.2251 O.3       1 <0>        -0.2095
     14 C10         0.2039   -6.8849   -0.4739 C.2       1 <0>         0.4666
     15 C11         0.3364   -8.1476   -1.0907 C.2       1 <0>        -0.0619
     16 C12         0.3743   -8.5699   -2.4066 C.2       1 <0>        -0.0782
     17 C13         0.5237   -9.9598   -2.3850 C.2       1 <0>         0.0546
     18 C14         0.5735  -10.3552   -1.0817 C.2       1 <0>        -0.0113
     19 N2          0.4610   -9.2653   -0.2870 N.pl3     1 <0>        -0.2281
     20 N3          0.4504   -9.0890    1.1038 N.2       1 <0>        -0.3330
     21 C15         0.3251   -7.8922    1.6085 C.2       1 <0>         0.3307
     22 N4          0.2082   -6.8072    0.8448 N.2       1 <0>        -0.5959
     23 O2          0.6046  -10.7741   -3.4731 O.3       1 <0>        -0.2880
     24 C16         0.7563  -12.1734   -3.2264 C.3       1 <0>         0.0562
     25 C17         0.8286  -12.9214   -4.5591 C.3       1 <0>        -0.1160
     26 C18         0.9911  -14.4196   -4.2950 C.3       1 <0>        -0.0970
     27 C19         2.3426  -14.6774   -3.6226 C.3       1 <0>        -0.1500
     28 C20         2.5330  -16.1839   -3.4336 C.3       1 <0>        -0.0068
     29 N5          2.4991  -16.8527   -4.7397 N.4       1 <0>        -0.3851
     30 C21         1.1808  -16.6700   -5.3588 C.3       1 <0>        -0.0067
     31 C22         0.9384  -15.1822   -5.6219 C.3       1 <0>        -0.1422
     32 C23         2.7597  -18.2873   -4.5606 C.3       1 <0>        -0.0474
     33 C24         0.2733   -7.6979   -3.6315 C.3       1 <0>        -0.0839
     34 H2          2.4940    0.1578    3.2361 H         1 <0>         0.0829
     35 H3          3.3542    0.5067    1.7173 H         1 <0>         0.0897
     36 H4          1.7768    1.2650    2.0411 H         1 <0>         0.0732
     37 H5          3.3635   -2.0396    0.9465 H         1 <0>         0.1530
     38 H6         -2.1029   -2.2294    0.5346 H         1 <0>         0.1394
     39 H7         -2.0625   -4.3946   -0.6155 H         1 <0>         0.1450
     40 H8          0.6845  -11.3732   -0.7386 H         1 <0>         0.1787
     41 H9          0.3188   -7.7772    2.6824 H         1 <0>         0.2265
     42 H10         1.6733  -12.3456   -2.6629 H         1 <0>         0.0599
     43 H11        -0.0964  -12.5357   -2.6522 H         1 <0>         0.0624
     44 H12        -0.0884  -12.7491   -5.1226 H         1 <0>         0.0877
     45 H13         1.6813  -12.5591   -5.1333 H         1 <0>         0.0828
     46 H14         0.1873  -14.7643   -3.6443 H         1 <0>         0.0932
     47 H15         3.1424  -14.2855   -4.2509 H         1 <0>         0.0926
     48 H16         2.3663  -14.1829   -2.6515 H         1 <0>         0.1131
     49 H17         3.4942  -16.3710   -2.9549 H         1 <0>         0.1312
     50 H18         1.7329  -16.5747   -2.8049 H         1 <0>         0.1286
     51 H19         1.1438  -17.2160   -6.3015 H         1 <0>         0.1318
     52 H20         0.4095  -17.0505   -4.6891 H         1 <0>         0.1286
     53 H21        -0.0416  -15.0486   -6.0799 H         1 <0>         0.1151
     54 H22         1.7091  -14.8008   -6.2918 H         1 <0>         0.0914
     55 H23         1.9964  -18.7170   -3.9118 H         1 <0>         0.1213
     56 H24         2.7348  -18.7849   -5.5300 H         1 <0>         0.1240
     57 H25         3.7413  -18.4243   -4.1069 H         1 <0>         0.1237
     58 H26         1.2706   -7.3775   -3.9328 H         1 <0>         0.0738
     59 H27        -0.1874   -8.2622   -4.4423 H         1 <0>         0.0744
     60 H28        -0.3365   -6.8231   -3.4055 H         1 <0>         0.0745
     61 H29         3.2083  -16.4562   -5.3379 H         1 <0>         0.4249
@<TRIPOS>BOND
     1    1    2 1
     2    1   34 1
     3    1   35 1
     4    1   36 1
     5    2    6 1
     6    2    3 2
     7    3    4 1
     8    3   37 1
     9    4   11 ar
    10    4    5 ar
    11    5    6 1
    12    5    8 ar
    13    6    7 1
    14    8    9 ar
    15    8   38 1
    16    9   10 ar
    17    9   39 1
    18   10   11 ar
    19   10   13 1
    20   11   12 1
    21   13   14 1
    22   14   22 2
    23   14   15 1
    24   15   19 1
    25   15   16 2
    26   16   17 1
    27   16   33 1
    28   17   18 2
    29   17   23 1
    30   18   19 1
    31   18   40 1
    32   19   20 1
    33   20   21 2
    34   21   22 1
    35   21   41 1
    36   23   24 1
    37   24   25 1
    38   24   42 1
    39   24   43 1
    40   25   26 1
    41   25   44 1
    42   25   45 1
    43   26   31 1
    44   26   27 1
    45   26   46 1
    46   27   28 1
    47   27   47 1
    48   27   48 1
    49   28   29 1
    50   28   49 1
    51   28   50 1
    52   29   30 1
    53   29   32 1
    54   29   61 1
    55   30   31 1
    56   30   51 1
    57   30   52 1
    58   31   53 1
    59   31   54 1
    60   32   55 1
    61   32   56 1
    62   32   57 1
    63   33   58 1
    64   33   59 1
    65   33   60 1
@<TRIPOS>MOLECULE
CHEMBL45816
   75    78     0     0     0
SMALL
USER_CHARGES

@<TRIPOS>ATOM
      1 C1          0.5287   -1.3298    1.3705 C.3       1 <0>        -0.1645
      2 C2          0.2576   -0.1526    0.4316 C.3       1 <0>        -0.0948
      3 C3          0.8599   -0.4479   -0.9435 C.3       1 <0>        -0.1421
      4 C4         -1.2524    0.0524    0.2936 C.3       1 <0>        -0.0310
      5 H1         -1.6967    0.1299    1.2859 H         1 <0>         0.0986
      6 C5         -1.5132    1.3255   -0.4683 C.ar      1 <0>        -0.0914
      7 C6         -0.7302    2.4322   -0.1648 C.ar      1 <0>        -0.0835
      8 C7         -0.9224    3.6290   -0.8221 C.ar      1 <0>        -0.1523
      9 C8         -1.9049    3.7297   -1.7930 C.ar      1 <0>         0.1111
     10 C9         -2.6825    2.6289   -2.0971 C.ar      1 <0>        -0.1551
     11 C10        -2.4863    1.4227   -1.4375 C.ar      1 <0>        -0.0398
     12 C11        -3.3589    0.2592   -1.8298 C.3       1 <0>        -0.0800
     13 C12        -3.3240   -0.8251   -0.7547 C.3       1 <0>        -0.1506
     14 C13        -1.8583   -1.1438   -0.4376 C.3       1 <0>         0.1473
     15 C14        -1.7830   -2.3849    0.4540 C.3       1 <0>        -0.2170
     16 C15        -2.4267   -2.0800    1.8080 C.3       1 <0>        -0.0176
     17 N1         -2.3149   -3.2572    2.6796 N.4       1 <0>        -0.3835
     18 C16        -3.1024   -4.3612    2.1147 C.3       1 <0>        -0.0591
     19 C17        -2.8245   -2.9265    4.0171 C.3       1 <0>        -0.0111
     20 C18        -2.5940   -4.1108    4.9579 C.3       1 <0>        -0.1425
     21 C19        -3.1248   -3.7663    6.3509 C.3       1 <0>        -0.0320
     22 C20        -2.8978   -4.9328    7.2776 C.2       1 <0>         0.2643
     23 N2         -2.2376   -4.8677    8.4652 N.pl3     1 <0>        -0.5958
     24 H2         -1.8374   -4.0761    8.8578 H         1 <0>         0.4237
     25 C21        -2.2432   -6.1369    9.0083 C.ar      1 <0>         0.0516
     26 C22        -1.7394   -6.6905   10.1776 C.ar      1 <0>        -0.1145
     27 C23        -1.9201   -8.0335   10.4303 C.ar      1 <0>        -0.0902
     28 C24        -2.6011   -8.8343    9.5242 C.ar      1 <0>        -0.1216
     29 C25        -3.1037   -8.3069    8.3686 C.ar      1 <0>        -0.0637
     30 C26        -2.9330   -6.9479    8.0915 C.ar      1 <0>         0.0430
     31 N3         -3.3096   -6.1479    7.0611 N.2       1 <0>        -0.4831
     32 O1         -1.1426   -1.3786   -1.6520 O.3       1 <0>        -0.3090
     33 C27        -1.4862   -2.4650   -2.3615 C.2       1 <0>         0.4592
     34 O2         -2.3931   -3.1697   -1.9863 O.2       1 <0>        -0.4841
     35 C28        -0.7407   -2.8058   -3.6261 C.3       1 <0>         0.0629
     36 O3         -1.2881   -3.9967   -4.1955 O.3       1 <0>        -0.3710
     37 C29        -0.6490   -4.4096   -5.4051 C.3       1 <0>         0.0296
     38 F1         -2.1025    4.8993   -2.4395 F         1 <0>        -0.1336
     39 H3          1.4855   -1.1823    1.8713 H         1 <0>         0.0691
     40 H4         -0.2652   -1.3913    2.1148 H         1 <0>         0.0441
     41 H5          0.5589   -2.2546    0.7944 H         1 <0>         0.0682
     42 H6          0.7109    0.7503    0.8406 H         1 <0>         0.0874
     43 H7          0.7715   -1.5129   -1.1579 H         1 <0>         0.0605
     44 H8          0.3255    0.1214   -1.7041 H         1 <0>         0.0726
     45 H9          1.9119   -0.1624   -0.9483 H         1 <0>         0.0524
     46 H10         0.0355    2.3546    0.5929 H         1 <0>         0.1345
     47 H11        -0.3093    4.4847   -0.5806 H         1 <0>         0.1393
     48 H12        -3.4489    2.7071   -2.8540 H         1 <0>         0.1369
     49 H13        -4.3844    0.6060   -1.9572 H         1 <0>         0.0883
     50 H14        -3.0012   -0.1568   -2.7716 H         1 <0>         0.0816
     51 H15        -3.8251   -0.4667    0.1445 H         1 <0>         0.0824
     52 H16        -3.8237   -1.7217   -1.1213 H         1 <0>         0.0974
     53 H17        -2.3141   -3.2082   -0.0237 H         1 <0>         0.1246
     54 H18        -0.7395   -2.6630    0.6021 H         1 <0>         0.1198
     55 H19        -1.9163   -1.2354    2.2710 H         1 <0>         0.1376
     56 H20        -3.4786   -1.8338    1.6631 H         1 <0>         0.1361
     57 H21        -4.1478   -4.0614    2.0414 H         1 <0>         0.1261
     58 H22        -2.7242   -4.6066    1.1223 H         1 <0>         0.1276
     59 H23        -3.0194   -5.2347    2.7614 H         1 <0>         0.1290
     60 H24        -2.2997   -2.0511    4.3996 H         1 <0>         0.1319
     61 H25        -3.8916   -2.7127    3.9567 H         1 <0>         0.1357
     62 H26        -3.1189   -4.9862    4.5754 H         1 <0>         0.1052
     63 H27        -1.5269   -4.3245    5.0183 H         1 <0>         0.0893
     64 H28        -2.6000   -2.8909    6.7335 H         1 <0>         0.0937
     65 H29        -4.1919   -3.5525    6.2905 H         1 <0>         0.1074
     66 H30        -1.2081   -6.0719   10.8857 H         1 <0>         0.1265
     67 H31        -1.5288   -8.4656   11.3394 H         1 <0>         0.1360
     68 H32        -2.7348   -9.8851    9.7347 H         1 <0>         0.1350
     69 H33        -3.6318   -8.9393    7.6703 H         1 <0>         0.1315
     70 H34        -0.8375   -1.9854   -4.3372 H         1 <0>         0.0969
     71 H35         0.3127   -2.9643   -3.3954 H         1 <0>         0.0955
     72 H36        -1.1220   -5.3199   -5.7735 H         1 <0>         0.0993
     73 H37        -0.7439   -3.6224   -6.1531 H         1 <0>         0.0510
     74 H38         0.4063   -4.6013   -5.2113 H         1 <0>         0.0498
     75 H39        -1.3472   -3.5347    2.7475 H         1 <0>         0.4230
@<TRIPOS>BOND
     1    1    2 1
     2    1   39 1
     3    1   40 1
     4    1   41 1
     5    2    3 1
     6    2    4 1
     7    2   42 1
     8    3   43 1
     9    3   44 1
    10    3   45 1
    11    4    5 1
    12    4   14 1
    13    4    6 1
    14    6   11 ar
    15    6    7 ar
    16    7    8 ar
    17    7   46 1
    18    8    9 ar
    19    8   47 1
    20    9   10 ar
    21    9   38 1
    22   10   11 ar
    23   10   48 1
    24   11   12 1
    25   12   13 1
    26   12   49 1
    27   12   50 1
    28   13   14 1
    29   13   51 1
    30   13   52 1
    31   14   15 1
    32   14   32 1
    33   15   16 1
    34   15   53 1
    35   15   54 1
    36   16   17 1
    37   16   55 1
    38   16   56 1
    39   17   18 1
    40   17   19 1
    41   17   75 1
    42   18   57 1
    43   18   58 1
    44   18   59 1
    45   19   20 1
    46   19   60 1
    47   19   61 1
    48   20   21 1
    49   20   62 1
    50   20   63 1
    51   21   22 1
    52   21   64 1
    53   21   65 1
    54   22   31 2
    55   22   23 1
    56   23   24 1
    57   23   25 1
    58   25   30 ar
    59   25   26 ar
    60   26   27 ar
    61   26   66 1
    62   27   28 ar
    63   27   67 1
    64   28   29 ar
    65   28   68 1
    66   29   30 ar
    67   29   69 1
    68   30   31 1
    69   32   33 1
    70   33   34 2
    71   33   35 1
    72   35   36 1
    73   35   70 1
    74   35   71 1
    75   36   37 1
    76   37   72 1
    77   37   73 1
    78   37   74 1
@<TRIPOS>MOLECULE
CHEMBL1080603
   79    82     0     0     0
SMALL
USER_CHARGES

@<TRIPOS>ATOM
      1 C1         -0.6141    0.2772    0.0121 C.3       1 <0>        -0.1874
      2 C2         -0.2391   -1.1698   -0.3142 C.3       1 <0>        -0.0193
      3 N1          0.5375   -1.2052   -1.5607 N.4       1 <0>        -0.3875
      4 C3          1.8245   -0.5274   -1.3551 C.3       1 <0>        -0.0276
      5 C4          2.5730   -0.4396   -2.6866 C.3       1 <0>         0.1355
      6 H1          2.8172   -1.4438   -3.0331 H         1 <0>         0.1309
      7 C5          3.8625    0.3614   -2.4949 C.3       1 <0>        -0.0866
      8 C6          4.6593    0.3442   -3.7739 C.ar      1 <0>        -0.0957
      9 C7          5.5831   -0.6592   -3.9992 C.ar      1 <0>        -0.1060
     10 C8          6.3141   -0.6750   -5.1724 C.ar      1 <0>        -0.1124
     11 C9          6.1210    0.3123   -6.1204 C.ar      1 <0>        -0.1095
     12 C10         5.1965    1.3152   -5.8955 C.ar      1 <0>        -0.1168
     13 C11         4.4625    1.3286   -4.7242 C.ar      1 <0>        -0.1095
     14 N2          1.7270    0.2273   -3.6794 N.am      1 <0>        -0.7268
     15 C12         1.6019   -0.2928   -4.9165 C.2       1 <0>         0.6467
     16 O1          2.1909   -1.3147   -5.2084 O.2       1 <0>        -0.5430
     17 O2          0.8243    0.3201   -5.8289 O.3       1 <0>        -0.3526
     18 C13         0.7377   -0.2865   -7.1199 C.3       1 <0>         0.1804
     19 C14        -0.1698    0.5334   -8.0003 C.2       1 <0>        -0.1884
     20 C15         0.1429    1.5622   -8.8255 C.2       1 <0>        -0.1112
     21 C16        -0.8656    2.1734   -9.5468 C.2       1 <0>        -0.1689
     22 C17        -2.1374    1.7257   -9.4075 C.2       1 <0>        -0.1516
     23 S1         -1.9345    0.3965   -8.2331 S.3       1 <0>         0.0776
     24 C18         0.7762   -2.6016   -1.9494 C.3       1 <0>        -0.0306
     25 C19        -0.5574   -3.2728   -2.2842 C.3       1 <0>         0.1473
     26 H2         -1.1735   -3.3246   -1.3866 H         1 <0>         0.1219
     27 C20        -0.2992   -4.6870   -2.8080 C.3       1 <0>        -0.0909
     28 C21        -1.6143   -5.3913   -3.0217 C.ar      1 <0>        -0.0818
     29 C22        -2.1834   -6.1194   -1.9936 C.ar      1 <0>        -0.1018
     30 C23        -3.3896   -6.7655   -2.1896 C.ar      1 <0>        -0.1097
     31 C24        -4.0270   -6.6832   -3.4135 C.ar      1 <0>        -0.1084
     32 C25        -3.4583   -5.9543   -4.4413 C.ar      1 <0>        -0.1134
     33 C26        -2.2542   -5.3047   -4.2439 C.ar      1 <0>        -0.1090
     34 N3         -1.2533   -2.4916   -3.3098 N.am      1 <0>        -0.7293
     35 C27        -2.5954   -2.5591   -3.4131 C.2       1 <0>         0.6499
     36 O3         -3.2282   -3.2678   -2.6556 O.2       1 <0>        -0.5278
     37 O4         -3.2350   -1.8412   -4.3556 O.3       1 <0>        -0.3558
     38 C28        -4.6580   -1.9609   -4.4078 C.3       1 <0>         0.1803
     39 C29        -5.1949   -1.0921   -5.5160 C.2       1 <0>        -0.1782
     40 C30        -5.4118   -1.4049   -6.8169 C.2       1 <0>        -0.1099
     41 C31        -5.9173   -0.4365   -7.6638 C.2       1 <0>        -0.1648
     42 C32        -6.1811    0.7973   -7.1685 C.2       1 <0>        -0.1511
     43 S2         -5.7174    0.6139   -5.4542 S.3       1 <0>         0.0599
     44 H3          0.2871    0.8400    0.2555 H         1 <0>         0.0833
     45 H4         -1.1028    0.7293   -0.8509 H         1 <0>         0.0782
     46 H5         -1.2936    0.2931    0.8642 H         1 <0>         0.1098
     47 H6          0.3590   -1.5823    0.4983 H         1 <0>         0.1381
     48 H7         -1.1463   -1.7620   -0.4345 H         1 <0>         0.1327
     49 H8          1.6487    0.4771   -0.9702 H         1 <0>         0.1446
     50 H9          2.4220   -1.0915   -0.6389 H         1 <0>         0.1553
     51 H10         3.6155    1.3906   -2.2345 H         1 <0>         0.0897
     52 H11         4.4516   -0.0848   -1.6937 H         1 <0>         0.0994
     53 H12         5.7340   -1.4306   -3.2585 H         1 <0>         0.1205
     54 H13         7.0363   -1.4586   -5.3481 H         1 <0>         0.1248
     55 H14         6.6926    0.3003   -7.0367 H         1 <0>         0.1243
     56 H15         5.0459    2.0867   -6.6360 H         1 <0>         0.1221
     57 H16         3.7376    2.1100   -4.5501 H         1 <0>         0.1157
     58 H17         1.2568    1.0431   -3.4464 H         1 <0>         0.4128
     59 H18         1.7310   -0.3343   -7.5662 H         1 <0>         0.0952
     60 H19         0.3348   -1.2946   -7.0214 H         1 <0>         0.0854
     61 H20         1.1647    1.8997   -8.9178 H         1 <0>         0.1351
     62 H21        -0.6435    2.9955  -10.2110 H         1 <0>         0.1401
     63 H22        -3.0389    2.0789   -9.8860 H         1 <0>         0.1898
     64 H23         1.4265   -2.6293   -2.8237 H         1 <0>         0.1442
     65 H24         1.2529   -3.1319   -1.1251 H         1 <0>         0.1578
     66 H25         0.2409   -4.6314   -3.7531 H         1 <0>         0.0884
     67 H26         0.2956   -5.2405   -2.0815 H         1 <0>         0.0969
     68 H27        -1.6854   -6.1838   -1.0374 H         1 <0>         0.1165
     69 H28        -3.8339   -7.3350   -1.3866 H         1 <0>         0.1215
     70 H29        -4.9690   -7.1886   -3.5668 H         1 <0>         0.1211
     71 H30        -3.9561   -5.8903   -5.3976 H         1 <0>         0.1178
     72 H31        -1.8117   -4.7322   -5.0457 H         1 <0>         0.1093
     73 H32        -0.7482   -1.9259   -3.9145 H         1 <0>         0.4011
     74 H33        -4.9286   -2.9997   -4.5970 H         1 <0>         0.0947
     75 H34        -5.0846   -1.6417   -3.4568 H         1 <0>         0.0852
     76 H35        -5.1927   -2.3958   -7.1862 H         1 <0>         0.1349
     77 H36        -6.0990   -0.6595   -8.7048 H         1 <0>         0.1390
     78 H37        -6.5737    1.6650   -7.6777 H         1 <0>         0.1898
     79 H38         0.0231   -0.7360   -2.2909 H         1 <0>         0.4178
@<TRIPOS>BOND
     1    1    2 1
     2    1   44 1
     3    1   45 1
     4    1   46 1
     5    2    3 1
     6    2   47 1
     7    2   48 1
     8    3    4 1
     9    3   24 1
    10    3   79 1
    11    4    5 1
    12    4   49 1
    13    4   50 1
    14    5    6 1
    15    5    7 1
    16    5   14 1
    17    7    8 1
    18    7   51 1
    19    7   52 1
    20    8   13 ar
    21    8    9 ar
    22    9   10 ar
    23    9   53 1
    24   10   11 ar
    25   10   54 1
    26   11   12 ar
    27   11   55 1
    28   12   13 ar
    29   12   56 1
    30   13   57 1
    31   14   15 am
    32   14   58 1
    33   15   16 2
    34   15   17 1
    35   17   18 1
    36   18   19 1
    37   18   59 1
    38   18   60 1
    39   19   23 1
    40   19   20 2
    41   20   21 1
    42   20   61 1
    43   21   22 2
    44   21   62 1
    45   22   23 1
    46   22   63 1
    47   24   25 1
    48   24   64 1
    49   24   65 1
    50   25   26 1
    51   25   27 1
    52   25   34 1
    53   27   28 1
    54   27   66 1
    55   27   67 1
    56   28   33 ar
    57   28   29 ar
    58   29   30 ar
    59   29   68 1
    60   30   31 ar
    61   30   69 1
    62   31   32 ar
    63   31   70 1
    64   32   33 ar
    65   32   71 1
    66   33   72 1
    67   34   35 am
    68   34   73 1
    69   35   36 2
    70   35   37 1
    71   37   38 1
    72   38   39 1
    73   38   74 1
    74   38   75 1
    75   39   43 1
    76   39   40 2
    77   40   41 1
    78   40   76 1
    79   41   42 2
    80   41   77 1
    81   42   43 1
    82   42   78 1
@<TRIPOS>MOLECULE
CHEMBL1079712
   79    82     0     0     0
SMALL
USER_CHARGES

@<TRIPOS>ATOM
      1 C1          0.3112    0.2948    0.5260 C.3       1 <0>        -0.1869
      2 C2         -0.1195   -1.1649    0.3698 C.3       1 <0>        -0.0198
      3 N1         -1.5858   -1.2404    0.3219 N.4       1 <0>        -0.3870
      4 C3         -2.0037   -2.6486    0.3151 C.3       1 <0>        -0.0306
      5 C4         -1.6078   -3.3045    1.6394 C.3       1 <0>         0.1474
      6 H1         -0.5213   -3.3266    1.7234 H         1 <0>         0.1223
      7 C5         -2.1518   -4.7339    1.6834 C.3       1 <0>        -0.0904
      8 C6         -1.6594   -5.4206    2.9312 C.ar      1 <0>        -0.0837
      9 C7         -0.4652   -6.1166    2.9116 C.ar      1 <0>        -0.1025
     10 C8         -0.0136   -6.7466    4.0562 C.ar      1 <0>        -0.1097
     11 C9         -0.7559   -6.6801    5.2204 C.ar      1 <0>        -0.1072
     12 C10        -1.9496   -5.9834    5.2402 C.ar      1 <0>        -0.1117
     13 C11        -2.3992   -5.3498    4.0968 C.ar      1 <0>        -0.1089
     14 N2         -2.1681   -2.5343    2.7525 N.am      1 <0>        -0.7289
     15 C12        -1.5840   -2.5815    3.9662 C.2       1 <0>         0.6520
     16 O1         -0.5926   -3.2630    4.1372 O.2       1 <0>        -0.5230
     17 O2         -2.0989   -1.8737    4.9892 O.3       1 <0>        -0.3623
     18 C13        -1.4286   -1.9706    6.2475 C.3       1 <0>         0.1819
     19 C14        -2.1425   -1.1172    7.2639 C.2       1 <0>        -0.0140
     20 C15        -3.2451   -0.3767    7.0412 C.2       1 <0>        -0.0264
     21 N3         -3.5578    0.2342    8.2255 N.pl3     1 <0>        -0.5666
     22 C16        -2.6347   -0.1545    9.1314 C.2       1 <0>         0.2015
     23 N4         -1.7945   -0.9666    8.5505 N.2       1 <0>        -0.4804
     24 H2         -4.3031    0.8342    8.3845 H         1 <0>         0.4243
     25 C17        -2.0705   -0.5799   -0.8975 C.3       1 <0>        -0.0277
     26 C18        -3.5996   -0.5333   -0.8789 C.3       1 <0>         0.1357
     27 H3         -3.9945   -1.5486   -0.9125 H         1 <0>         0.1323
     28 C19        -4.1009    0.2494   -2.0942 C.3       1 <0>        -0.0864
     29 C20        -5.6059    0.1913   -2.1433 C.ar      1 <0>        -0.0972
     30 C21        -6.2362   -0.8323   -2.8258 C.ar      1 <0>        -0.1056
     31 C22        -7.6168   -0.8856   -2.8708 C.ar      1 <0>        -0.1112
     32 C23        -8.3671    0.0845   -2.2330 C.ar      1 <0>        -0.1081
     33 C24        -7.7368    1.1076   -1.5497 C.ar      1 <0>        -0.1169
     34 C25        -6.3563    1.1585   -1.5011 C.ar      1 <0>        -0.1113
     35 N5         -4.0532    0.1267    0.3479 N.am      1 <0>        -0.7247
     36 C26        -5.0487   -0.4159    1.0766 C.2       1 <0>         0.6525
     37 O3         -5.5701   -1.4526    0.7159 O.2       1 <0>        -0.5325
     38 O4         -5.4655    0.1906    2.2040 O.3       1 <0>        -0.3686
     39 C27        -6.5248   -0.4403    2.9265 C.3       1 <0>         0.1798
     40 C28        -6.8542    0.3759    4.1498 C.2       1 <0>         0.1956
     41 N6         -6.2519    1.5289    4.5122 N.pl3     1 <0>        -0.5544
     42 H4         -5.5356    1.9783    4.0370 H         1 <0>         0.4213
     43 C29        -6.8413    1.9454    5.6754 C.2       1 <0>        -0.0476
     44 C30        -7.7828    1.0331    5.9834 C.2       1 <0>        -0.0163
     45 N7         -7.7725    0.0885    5.0313 N.2       1 <0>        -0.4690
     46 H5          1.3883    0.3406    0.6870 H         1 <0>         0.1102
     47 H6          0.0551    0.8479   -0.3776 H         1 <0>         0.0830
     48 H7         -0.2028    0.7360    1.3800 H         1 <0>         0.0771
     49 H8          0.2955   -1.5694   -0.5533 H         1 <0>         0.1386
     50 H9          0.2466   -1.7445    1.2173 H         1 <0>         0.1338
     51 H10        -3.0850   -2.7062    0.1901 H         1 <0>         0.1440
     52 H11        -1.5146   -3.1688   -0.5085 H         1 <0>         0.1584
     53 H12        -3.2415   -4.7079    1.6889 H         1 <0>         0.0885
     54 H13        -1.8059   -5.2814    0.8067 H         1 <0>         0.0968
     55 H14         0.1147   -6.1685    2.0020 H         1 <0>         0.1162
     56 H15         0.9191   -7.2909    4.0407 H         1 <0>         0.1215
     57 H16        -0.4033   -7.1729    6.1145 H         1 <0>         0.1216
     58 H17        -2.5297   -5.9318    6.1497 H         1 <0>         0.1182
     59 H18        -3.3300   -4.8024    4.1132 H         1 <0>         0.1091
     60 H19        -2.9596   -1.9903    2.6161 H         1 <0>         0.3992
     61 H20        -1.4288   -3.0086    6.5802 H         1 <0>         0.0874
     62 H21        -0.4010   -1.6238    6.1394 H         1 <0>         0.0847
     63 H22        -3.7796   -0.2827    6.1075 H         1 <0>         0.1718
     64 H23        -2.6001    0.1525   10.1663 H         1 <0>         0.2157
     65 H24        -1.6765    0.4355   -0.9418 H         1 <0>         0.1447
     66 H25        -1.7346   -1.1383   -1.7712 H         1 <0>         0.1564
     67 H26        -3.7797    1.2880   -2.0152 H         1 <0>         0.0897
     68 H27        -3.6905   -0.1896   -3.0036 H         1 <0>         0.1006
     69 H28        -5.6500   -1.5902   -3.3241 H         1 <0>         0.1212
     70 H29        -8.1092   -1.6850   -3.4046 H         1 <0>         0.1258
     71 H30        -9.4457    0.0432   -2.2687 H         1 <0>         0.1251
     72 H31        -8.3230    1.8657   -1.0516 H         1 <0>         0.1218
     73 H32        -5.8639    1.9558   -0.9641 H         1 <0>         0.1143
     74 H33        -3.6370    0.9542    0.6358 H         1 <0>         0.4123
     75 H34        -7.4064   -0.5124    2.2896 H         1 <0>         0.1040
     76 H35        -6.2129   -1.4397    3.2297 H         1 <0>         0.1023
     77 H36        -6.5978    2.8345    6.2381 H         1 <0>         0.1825
     78 H37        -8.4345    1.0596    6.8442 H         1 <0>         0.1779
     79 H38        -1.9730   -0.7785    1.1311 H         1 <0>         0.4164
@<TRIPOS>BOND
     1    1    2 1
     2    1   46 1
     3    1   47 1
     4    1   48 1
     5    2    3 1
     6    2   49 1
     7    2   50 1
     8    3    4 1
     9    3   25 1
    10    3   79 1
    11    4    5 1
    12    4   51 1
    13    4   52 1
    14    5    6 1
    15    5    7 1
    16    5   14 1
    17    7    8 1
    18    7   53 1
    19    7   54 1
    20    8   13 ar
    21    8    9 ar
    22    9   10 ar
    23    9   55 1
    24   10   11 ar
    25   10   56 1
    26   11   12 ar
    27   11   57 1
    28   12   13 ar
    29   12   58 1
    30   13   59 1
    31   14   15 am
    32   14   60 1
    33   15   16 2
    34   15   17 1
    35   17   18 1
    36   18   61 1
    37   18   62 1
    38   18   19 1
    39   19   23 1
    40   19   20 2
    41   20   63 1
    42   20   21 1
    43   21   22 1
    44   21   24 1
    45   22   64 1
    46   22   23 2
    47   25   26 1
    48   25   65 1
    49   25   66 1
    50   26   27 1
    51   26   28 1
    52   26   35 1
    53   28   29 1
    54   28   67 1
    55   28   68 1
    56   29   34 ar
    57   29   30 ar
    58   30   31 ar
    59   30   69 1
    60   31   32 ar
    61   31   70 1
    62   32   33 ar
    63   32   71 1
    64   33   34 ar
    65   33   72 1
    66   34   73 1
    67   35   36 am
    68   35   74 1
    69   36   37 2
    70   36   38 1
    71   38   39 1
    72   39   40 1
    73   39   75 1
    74   39   76 1
    75   40   45 2
    76   40   41 1
    77   41   42 1
    78   41   43 1
    79   43   44 2
    80   43   77 1
    81   44   45 1
    82   44   78 1
@<TRIPOS>MOLECULE
CHEMBL1079712
   80    83     0     0     0
SMALL
USER_CHARGES

@<TRIPOS>ATOM
      1 C1         -0.6109    0.2851    0.0137 C.3       1 <0>        -0.1868
      2 C2         -0.2376   -1.1628   -0.3104 C.3       1 <0>        -0.0207
      3 N1          0.5378   -1.2012   -1.5574 N.4       1 <0>        -0.3865
      4 C3          0.7745   -2.5985   -1.9440 C.3       1 <0>        -0.0325
      5 C4         -0.5601   -3.2688   -2.2765 C.3       1 <0>         0.1473
      6 H1         -1.1755   -3.3184   -1.3782 H         1 <0>         0.1254
      7 C5         -0.3040   -4.6842   -2.7980 C.3       1 <0>        -0.0937
      8 C6         -1.6200   -5.3874   -3.0093 C.ar      1 <0>        -0.0834
      9 C7         -2.1890   -6.1131   -1.9795 C.ar      1 <0>        -0.0989
     10 C8         -3.3962   -6.7582   -2.1732 C.ar      1 <0>        -0.1062
     11 C9         -4.0345   -6.6772   -3.3967 C.ar      1 <0>        -0.1082
     12 C10        -3.4660   -5.9508   -4.4262 C.ar      1 <0>        -0.1183
     13 C11        -2.2609   -5.3022   -4.2311 C.ar      1 <0>        -0.1148
     14 N2         -1.2561   -2.4886   -3.3027 N.am      1 <0>        -0.7215
     15 C12        -2.5984   -2.5548   -3.4047 C.2       1 <0>         0.6579
     16 O1         -3.2312   -3.2615   -2.6454 O.2       1 <0>        -0.5123
     17 O2         -3.2380   -1.8378   -4.3478 O.3       1 <0>        -0.3633
     18 C13        -4.6612   -1.9559   -4.3985 C.3       1 <0>         0.1540
     19 C14        -5.1980   -1.0884   -5.5077 C.2       1 <0>         0.0150
     20 C15        -4.4657   -0.3201   -6.3364 C.2       1 <0>         0.0589
     21 N3         -5.3446    0.2945   -7.1870 N.pl3     1 <0>        -0.5087
     22 C16        -6.5844   -0.1200   -6.8481 C.cat     1 <0>         0.3275
     23 N4         -6.4886   -0.9507   -5.8462 N.pl3     1 <0>        -0.4683
     24 H2         -5.1191    0.9123   -7.8999 H         1 <0>         0.4710
     25 C17         1.8257   -0.5245   -1.3542 C.3       1 <0>        -0.0286
     26 C18         2.5731   -0.4396   -2.6866 C.3       1 <0>         0.1355
     27 H3          2.8153   -1.4446   -3.0320 H         1 <0>         0.1329
     28 C19         3.8639    0.3596   -2.4973 C.3       1 <0>        -0.0870
     29 C20         4.6594    0.3395   -3.7771 C.ar      1 <0>        -0.0997
     30 C21         5.5814   -0.6656   -4.0020 C.ar      1 <0>        -0.1052
     31 C22         6.3112   -0.6840   -5.1759 C.ar      1 <0>        -0.1098
     32 C23         6.1186    0.3023   -6.1250 C.ar      1 <0>        -0.1065
     33 C24         5.1959    1.3069   -5.9005 C.ar      1 <0>        -0.1172
     34 C25         4.4631    1.3230   -4.7285 C.ar      1 <0>        -0.1126
     35 N5          1.7270    0.2273   -3.6794 N.am      1 <0>        -0.7237
     36 C26         1.6019   -0.2928   -4.9165 C.2       1 <0>         0.6509
     37 O3          2.1909   -1.3147   -5.2084 O.2       1 <0>        -0.5285
     38 O4          0.8243    0.3201   -5.8289 O.3       1 <0>        -0.3718
     39 C27         0.7378   -0.2865   -7.1199 C.3       1 <0>         0.1767
     40 C28        -0.1698    0.5334   -8.0003 C.2       1 <0>         0.1976
     41 N6         -0.8026    1.6697   -7.6370 N.pl3     1 <0>        -0.5580
     42 H4         -0.7560    2.1026   -6.7702 H         1 <0>         0.4218
     43 C29        -1.5219    2.0967   -8.7205 C.2       1 <0>        -0.0552
     44 C30        -1.3040    1.2073   -9.7080 C.2       1 <0>        -0.0145
     45 N7         -0.4698    0.2660   -9.2419 N.2       1 <0>        -0.4671
     46 H5          0.2911    0.8476    0.2548 H         1 <0>         0.0857
     47 H6         -1.1004    0.7361   -0.8495 H         1 <0>         0.0744
     48 H7         -1.2892    0.3033    0.8667 H         1 <0>         0.1112
     49 H8          0.3608   -1.5744    0.5024 H         1 <0>         0.1414
     50 H9         -1.1455   -1.7543   -0.4287 H         1 <0>         0.1315
     51 H10         1.4240   -2.6285   -2.8189 H         1 <0>         0.1465
     52 H11         1.2514   -3.1279   -1.1192 H         1 <0>         0.1627
     53 H12         0.2353   -4.6308   -3.7437 H         1 <0>         0.0915
     54 H13         0.2909   -5.2372   -2.0712 H         1 <0>         0.1024
     55 H14        -1.6903   -6.1763   -1.0236 H         1 <0>         0.1199
     56 H15        -3.8404   -7.3257   -1.3689 H         1 <0>         0.1248
     57 H16        -4.9773   -7.1818   -3.5483 H         1 <0>         0.1225
     58 H17        -3.9646   -5.8878   -5.3822 H         1 <0>         0.1160
     59 H18        -1.8186   -4.7315   -5.0343 H         1 <0>         0.1087
     60 H19        -0.7509   -1.9245   -3.9088 H         1 <0>         0.4026
     61 H20        -4.9331   -2.9947   -4.5857 H         1 <0>         0.1125
     62 H21        -5.0865   -1.6347   -3.4477 H         1 <0>         0.1103
     63 H22        -3.3913   -0.2097   -6.3309 H         1 <0>         0.2218
     64 H23        -7.5027    0.1827   -7.3292 H         1 <0>         0.2750
     65 H24         1.6514    0.4808   -0.9707 H         1 <0>         0.1465
     66 H25         2.4233   -1.0882   -0.6378 H         1 <0>         0.1590
     67 H26         3.6188    1.3896   -2.2380 H         1 <0>         0.0904
     68 H27         4.4532   -0.0864   -1.6961 H         1 <0>         0.1023
     69 H28         5.7319   -1.4362   -3.2605 H         1 <0>         0.1218
     70 H29         7.0320   -1.4689   -5.3514 H         1 <0>         0.1272
     71 H30         6.6892    0.2883   -7.0419 H         1 <0>         0.1264
     72 H31         5.0457    2.0778   -6.6419 H         1 <0>         0.1219
     73 H32         3.7396    2.1057   -4.5546 H         1 <0>         0.1132
     74 H33         1.2568    1.0431   -3.4464 H         1 <0>         0.4117
     75 H34         1.7310   -0.3343   -7.5662 H         1 <0>         0.1068
     76 H35         0.3348   -1.2945   -7.0214 H         1 <0>         0.1022
     77 H36        -2.1447    2.9774   -8.7733 H         1 <0>         0.1837
     78 H37        -1.7241    1.2471  -10.7021 H         1 <0>         0.1796
     79 H38         0.0233   -0.7327   -2.2880 H         1 <0>         0.4129
     80 H39        -7.2333   -1.3968   -5.4135 H         1 <0>         0.4697
@<TRIPOS>BOND
     1    1    2 1
     2    1   46 1
     3    1   47 1
     4    1   48 1
     5    2    3 1
     6    2   49 1
     7    2   50 1
     8    3    4 1
     9    3   25 1
    10    3   79 1
    11    4    5 1
    12    4   51 1
    13    4   52 1
    14    5    6 1
    15    5    7 1
    16    5   14 1
    17    7    8 1
    18    7   53 1
    19    7   54 1
    20    8   13 ar
    21    8    9 ar
    22    9   10 ar
    23    9   55 1
    24   10   11 ar
    25   10   56 1
    26   11   12 ar
    27   11   57 1
    28   12   13 ar
    29   12   58 1
    30   13   59 1
    31   14   15 am
    32   14   60 1
    33   15   16 2
    34   15   17 1
    35   17   18 1
    36   18   61 1
    37   18   62 1
    38   18   19 1
    39   19   23 1
    40   19   20 2
    41   20   63 1
    42   20   21 1
    43   21   22 1
    44   21   24 1
    45   22   64 1
    46   22   23 2
    47   23   80 1
    48   25   26 1
    49   25   65 1
    50   25   66 1
    51   26   27 1
    52   26   28 1
    53   26   35 1
    54   28   29 1
    55   28   67 1
    56   28   68 1
    57   29   34 ar
    58   29   30 ar
    59   30   31 ar
    60   30   69 1
    61   31   32 ar
    62   31   70 1
    63   32   33 ar
    64   32   71 1
    65   33   34 ar
    66   33   72 1
    67   34   73 1
    68   35   36 am
    69   35   74 1
    70   36   37 2
    71   36   38 1
    72   38   39 1
    73   39   40 1
    74   39   75 1
    75   39   76 1
    76   40   45 2
    77   40   41 1
    78   41   42 1
    79   41   43 1
    80   43   44 2
    81   43   77 1
    82   44   45 1
    83   44   78 1
@<TRIPOS>MOLECULE
CHEMBL1079712
   79    82     0     0     0
SMALL
USER_CHARGES

@<TRIPOS>ATOM
      1 C1          0.3113    0.2931    0.5269 C.3       1 <0>        -0.1872
      2 C2         -0.1200   -1.1665    0.3705 C.3       1 <0>        -0.0195
      3 N1         -1.5863   -1.2413    0.3222 N.4       1 <0>        -0.3873
      4 C3         -2.0049   -2.6494    0.3153 C.3       1 <0>        -0.0308
      5 C4         -1.6095   -3.3055    1.6397 C.3       1 <0>         0.1477
      6 H1         -0.5230   -3.3280    1.7239 H         1 <0>         0.1223
      7 C5         -2.1542   -4.7346    1.6834 C.3       1 <0>        -0.0915
      8 C6         -1.6623   -5.4217    2.9313 C.ar      1 <0>        -0.0824
      9 C7         -0.4684   -6.1182    2.9119 C.ar      1 <0>        -0.1018
     10 C8         -0.0173   -6.7484    4.0565 C.ar      1 <0>        -0.1099
     11 C9         -0.7598   -6.6817    5.2206 C.ar      1 <0>        -0.1089
     12 C10        -1.9532   -5.9845    5.2402 C.ar      1 <0>        -0.1135
     13 C11        -2.4023   -5.3506    4.0967 C.ar      1 <0>        -0.1091
     14 N2         -2.1697   -2.5351    2.7527 N.am      1 <0>        -0.7270
     15 C12        -1.5858   -2.5827    3.9665 C.2       1 <0>         0.6536
     16 O1         -0.5947   -3.2646    4.1376 O.2       1 <0>        -0.5256
     17 O2         -2.1007   -1.8747    4.9894 O.3       1 <0>        -0.3519
     18 C13        -1.4307   -1.9720    6.2479 C.3       1 <0>         0.1765
     19 C14        -2.1444   -1.1183    7.2642 C.2       1 <0>        -0.0540
     20 C15        -3.2467   -0.3735    7.0549 C.2       1 <0>         0.0123
     21 N3         -3.5635    0.2321    8.2090 N.2       1 <0>        -0.4885
     22 C16        -2.6994   -0.1091    9.1255 C.2       1 <0>         0.2055
     23 N4         -1.8002   -0.9556    8.5790 N.pl3     1 <0>        -0.5595
     24 H2         -1.0495   -1.3694    9.0330 H         1 <0>         0.4236
     25 C17        -2.0705   -0.5805   -0.8972 C.3       1 <0>        -0.0276
     26 C18        -3.5996   -0.5333   -0.8789 C.3       1 <0>         0.1357
     27 H3         -3.9949   -1.5485   -0.9127 H         1 <0>         0.1320
     28 C19        -4.1003    0.2498   -2.0942 C.3       1 <0>        -0.0862
     29 C20        -5.6054    0.1923   -2.1436 C.ar      1 <0>        -0.0975
     30 C21        -6.2359   -0.8310   -2.8264 C.ar      1 <0>        -0.1060
     31 C22        -7.6165   -0.8837   -2.8717 C.ar      1 <0>        -0.1115
     32 C23        -8.3666    0.0866   -2.2339 C.ar      1 <0>        -0.1080
     33 C24        -7.7360    1.1094   -1.5504 C.ar      1 <0>        -0.1163
     34 C25        -6.3554    1.1597   -1.5014 C.ar      1 <0>        -0.1107
     35 N5         -4.0532    0.1267    0.3479 N.am      1 <0>        -0.7255
     36 C26        -5.0487   -0.4159    1.0766 C.2       1 <0>         0.6519
     37 O3         -5.5701   -1.4526    0.7159 O.2       1 <0>        -0.5339
     38 O4         -5.4655    0.1906    2.2040 O.3       1 <0>        -0.3670
     39 C27        -6.5248   -0.4403    2.9265 C.3       1 <0>         0.1826
     40 C28        -6.8542    0.3759    4.1498 C.2       1 <0>         0.1878
     41 N6         -6.2519    1.5289    4.5122 N.pl3     1 <0>        -0.5533
     42 H4         -5.5356    1.9783    4.0370 H         1 <0>         0.4196
     43 C29        -6.8413    1.9454    5.6754 C.2       1 <0>        -0.0323
     44 C30        -7.7828    1.0331    5.9834 C.2       1 <0>        -0.0169
     45 N7         -7.7725    0.0885    5.0313 N.2       1 <0>        -0.4698
     46 H5          1.3884    0.3384    0.6880 H         1 <0>         0.1098
     47 H6          0.0555    0.8464   -0.3767 H         1 <0>         0.0837
     48 H7         -0.2026    0.7343    1.3809 H         1 <0>         0.0775
     49 H8          0.2950   -1.5711   -0.5526 H         1 <0>         0.1386
     50 H9          0.2456   -1.7463    1.2180 H         1 <0>         0.1326
     51 H10        -3.0862   -2.7064    0.1900 H         1 <0>         0.1451
     52 H11        -1.5158   -3.1697   -0.5083 H         1 <0>         0.1588
     53 H12        -3.2438   -4.7081    1.6887 H         1 <0>         0.0899
     54 H13        -1.8083   -5.2823    0.8068 H         1 <0>         0.0978
     55 H14         0.1117   -6.1703    2.0024 H         1 <0>         0.1169
     56 H15         0.9151   -7.2932    4.0412 H         1 <0>         0.1216
     57 H16        -0.4076   -7.1747    6.1147 H         1 <0>         0.1208
     58 H17        -2.5335   -5.9327    6.1496 H         1 <0>         0.1176
     59 H18        -3.3328   -4.8028    4.1130 H         1 <0>         0.1105
     60 H19        -2.9609   -1.9908    2.6161 H         1 <0>         0.4016
     61 H20        -1.4313   -3.0100    6.5805 H         1 <0>         0.0850
     62 H21        -0.4028   -1.6257    6.1400 H         1 <0>         0.0823
     63 H22        -3.7817   -0.2803    6.1215 H         1 <0>         0.1646
     64 H23        -2.7049    0.2267   10.1519 H         1 <0>         0.2159
     65 H24        -1.6761    0.4347   -0.9413 H         1 <0>         0.1449
     66 H25        -1.7347   -1.1390   -1.7709 H         1 <0>         0.1562
     67 H26        -3.7787    1.2883   -2.0150 H         1 <0>         0.0897
     68 H27        -3.6899   -0.1893   -3.0035 H         1 <0>         0.1000
     69 H28        -5.6499   -1.5890   -3.3248 H         1 <0>         0.1207
     70 H29        -8.1092   -1.6828   -3.4058 H         1 <0>         0.1254
     71 H30        -9.4452    0.0458   -2.2699 H         1 <0>         0.1251
     72 H31        -8.3220    1.8676   -1.0523 H         1 <0>         0.1223
     73 H32        -5.8628    1.9567   -0.9642 H         1 <0>         0.1147
     74 H33        -3.6370    0.9542    0.6358 H         1 <0>         0.4124
     75 H34        -7.4064   -0.5124    2.2896 H         1 <0>         0.1022
     76 H35        -6.2129   -1.4397    3.2297 H         1 <0>         0.1001
     77 H36        -6.5978    2.8345    6.2381 H         1 <0>         0.1825
     78 H37        -8.4345    1.0596    6.8442 H         1 <0>         0.1767
     79 H38        -1.9735   -0.7793    1.1314 H         1 <0>         0.4168
@<TRIPOS>BOND
     1    1    2 1
     2    1   46 1
     3    1   47 1
     4    1   48 1
     5    2    3 1
     6    2   49 1
     7    2   50 1
     8    3    4 1
     9    3   25 1
    10    3   79 1
    11    4    5 1
    12    4   51 1
    13    4   52 1
    14    5    6 1
    15    5    7 1
    16    5   14 1
    17    7    8 1
    18    7   53 1
    19    7   54 1
    20    8   13 ar
    21    8    9 ar
    22    9   10 ar
    23    9   55 1
    24   10   11 ar
    25   10   56 1
    26   11   12 ar
    27   11   57 1
    28   12   13 ar
    29   12   58 1
    30   13   59 1
    31   14   15 am
    32   14   60 1
    33   15   16 2
    34   15   17 1
    35   17   18 1
    36   18   19 1
    37   18   61 1
    38   18   62 1
    39   19   23 1
    40   19   20 2
    41   20   21 1
    42   20   63 1
    43   21   22 2
    44   22   23 1
    45   22   64 1
    46   23   24 1
    47   25   26 1
    48   25   65 1
    49   25   66 1
    50   26   27 1
    51   26   28 1
    52   26   35 1
    53   28   29 1
    54   28   67 1
    55   28   68 1
    56   29   34 ar
    57   29   30 ar
    58   30   31 ar
    59   30   69 1
    60   31   32 ar
    61   31   70 1
    62   32   33 ar
    63   32   71 1
    64   33   34 ar
    65   33   72 1
    66   34   73 1
    67   35   36 am
    68   35   74 1
    69   36   37 2
    70   36   38 1
    71   38   39 1
    72   39   40 1
    73   39   75 1
    74   39   76 1
    75   40   45 2
    76   40   41 1
    77   41   42 1
    78   41   43 1
    79   43   44 2
    80   43   77 1
    81   44   45 1
    82   44   78 1
@<TRIPOS>MOLECULE
CHEMBL38958
   69    72     0     0     0
SMALL
USER_CHARGES

@<TRIPOS>ATOM
      1 C1         -0.1463    1.2670   -0.6773 C.3       1 <0>        -0.1356
      2 C2         -0.0085   -0.2557   -0.6197 C.3       1 <0>        -0.0650
      3 C3          0.5504   -0.6659    0.7443 C.3       1 <0>        -0.1404
      4 C4         -1.3812   -0.9001   -0.8231 C.3       1 <0>        -0.1254
      5 S1          1.1198   -0.8106   -1.9272 S.3       1 <0>        -0.0786
      6 C5          2.6723   -0.1097   -1.4764 C.2       1 <0>        -0.2126
      7 C6          3.1431    1.2446   -1.7907 C.ar      1 <0>        -0.0296
      8 C7          2.5882    2.3258   -2.4786 C.ar      1 <0>        -0.1047
      9 C8          3.3084    3.4966   -2.6044 C.ar      1 <0>         0.1012
     10 C9          4.5816    3.6007   -2.0494 C.ar      1 <0>        -0.1867
     11 C10         5.1386    2.5411   -1.3695 C.ar      1 <0>        -0.0864
     12 C11         4.4284    1.3526   -1.2310 C.ar      1 <0>         0.0713
     13 N1          4.7123    0.1484   -0.6222 N.pl3     1 <0>        -0.4710
     14 C12         3.6496   -0.7126   -0.7733 C.2       1 <0>         0.1935
     15 C13         3.5900   -2.1193   -0.2359 C.3       1 <0>        -0.0410
     16 C14         4.0945   -3.0942   -1.3018 C.3       1 <0>        -0.1221
     17 C15         3.2781   -2.9158   -2.5834 C.3       1 <0>        -0.1206
     18 C16         5.5697   -2.8123   -1.5934 C.3       1 <0>        -0.1286
     19 C17         3.9424   -4.5077   -0.8020 C.2       1 <0>         0.5076
     20 O1          3.7490   -5.4161   -1.5918 O.co2     1 <0>        -0.6896
     21 O2          4.0126   -4.7429    0.3923 O.co2     1 <0>        -0.6993
     22 C18         5.9566   -0.1654    0.0844 C.3       1 <0>         0.1377
     23 C19         5.8612    0.3180    1.5086 C.ar      1 <0>        -0.1053
     24 C20         6.1691    1.6304    1.8149 C.ar      1 <0>        -0.0878
     25 C21         6.0818    2.0743    3.1209 C.ar      1 <0>        -0.1142
     26 C22         5.6860    1.2049    4.1217 C.ar      1 <0>        -0.0275
     27 C23         5.3779   -0.1084    3.8145 C.ar      1 <0>        -0.1081
     28 C24         5.4602   -0.5497    2.5073 C.ar      1 <0>        -0.0827
     29 Cl1         5.5766    1.7616    5.7624 Cl        1 <0>        -0.0733
     30 O3          2.7729    4.5526   -3.2733 O.3       1 <0>        -0.3148
     31 C25         3.5714    5.7340   -3.3666 C.3       1 <0>         0.1157
     32 C26         2.8196    6.7891   -4.1365 C.ar      1 <0>         0.1252
     33 C27         1.5523    6.5130   -4.6145 C.ar      1 <0>        -0.1471
     34 C28         0.8693    7.4904   -5.3215 C.ar      1 <0>        -0.0751
     35 C29         1.4892    8.7145   -5.5222 C.ar      1 <0>        -0.1754
     36 C30         2.7581    8.9180   -5.0144 C.ar      1 <0>         0.1014
     37 N2          3.3761    7.9667   -4.3417 N.ar      1 <0>        -0.4821
     38 H1          0.8316    1.7261   -0.5324 H         1 <0>         0.0595
     39 H2         -0.5445    1.5593   -1.6490 H         1 <0>         0.0607
     40 H3         -0.8243    1.6005    0.1083 H         1 <0>         0.0516
     41 H4         -0.0822   -0.2593    1.5333 H         1 <0>         0.0542
     42 H5          0.5687   -1.7533    0.8173 H         1 <0>         0.0678
     43 H6          1.5628   -0.2772    0.8539 H         1 <0>         0.0562
     44 H7         -1.7793   -0.6078   -1.7948 H         1 <0>         0.0603
     45 H8         -1.2830   -1.9849   -0.7820 H         1 <0>         0.0657
     46 H9         -2.0591   -0.5666   -0.0374 H         1 <0>         0.0638
     47 H10         1.6014    2.2462   -2.9101 H         1 <0>         0.1317
     48 H11         5.1371    4.5209   -2.1536 H         1 <0>         0.1279
     49 H12         6.1269    2.6323   -0.9436 H         1 <0>         0.1187
     50 H13         4.2171   -2.1958    0.6524 H         1 <0>         0.0739
     51 H14         2.5605   -2.3657    0.0238 H         1 <0>         0.0945
     52 H15         3.4574   -1.9217   -2.9930 H         1 <0>         0.0354
     53 H16         3.5774   -3.6686   -3.3126 H         1 <0>         0.0535
     54 H17         2.2178   -3.0299   -2.3577 H         1 <0>         0.0640
     55 H18         6.1613   -3.0116   -0.6999 H         1 <0>         0.0476
     56 H19         5.9091   -3.4561   -2.4049 H         1 <0>         0.0546
     57 H20         5.6898   -1.7685   -1.8833 H         1 <0>         0.0399
     58 H21         6.1169   -1.2435    0.0766 H         1 <0>         0.1151
     59 H22         6.7912    0.3296   -0.4121 H         1 <0>         0.0959
     60 H23         6.4784    2.3089    1.0336 H         1 <0>         0.1293
     61 H24         6.3228    3.0996    3.3601 H         1 <0>         0.1326
     62 H25         5.0692   -0.7876    4.5954 H         1 <0>         0.1370
     63 H26         5.2152   -1.5736    2.2667 H         1 <0>         0.1422
     64 H27         3.7923    6.1033   -2.3651 H         1 <0>         0.0829
     65 H28         4.5034    5.5028   -3.8823 H         1 <0>         0.0836
     66 H29         1.1002    5.5479   -4.4397 H         1 <0>         0.1469
     67 H30        -0.1219    7.3028   -5.7072 H         1 <0>         0.1366
     68 H31         0.9867    9.4988   -6.0688 H         1 <0>         0.1356
     69 H32         3.2477    9.8685   -5.1664 H         1 <0>         0.1583
@<TRIPOS>BOND
     1    1    2 1
     2    1   38 1
     3    1   39 1
     4    1   40 1
     5    2    3 1
     6    2    4 1
     7    2    5 1
     8    3   41 1
     9    3   42 1
    10    3   43 1
    11    4   44 1
    12    4   45 1
    13    4   46 1
    14    5    6 1
    15    6   14 2
    16    6    7 1
    17    7   12 ar
    18    7    8 ar
    19    8    9 ar
    20    8   47 1
    21    9   10 ar
    22    9   30 1
    23   10   11 ar
    24   10   48 1
    25   11   12 ar
    26   11   49 1
    27   12   13 1
    28   13   14 1
    29   13   22 1
    30   14   15 1
    31   15   16 1
    32   15   50 1
    33   15   51 1
    34   16   17 1
    35   16   18 1
    36   16   19 1
    37   17   52 1
    38   17   53 1
    39   17   54 1
    40   18   55 1
    41   18   56 1
    42   18   57 1
    43   19   20 2
    44   19   21 1
    45   22   23 1
    46   22   58 1
    47   22   59 1
    48   23   28 ar
    49   23   24 ar
    50   24   25 ar
    51   24   60 1
    52   25   26 ar
    53   25   61 1
    54   26   27 ar
    55   26   29 1
    56   27   28 ar
    57   27   62 1
    58   28   63 1
    59   30   31 1
    60   31   32 1
    61   31   64 1
    62   31   65 1
    63   32   37 ar
    64   32   33 ar
    65   33   34 ar
    66   33   66 1
    67   34   35 ar
    68   34   67 1
    69   35   36 ar
    70   35   68 1
    71   36   37 ar
    72   36   69 1
@<TRIPOS>MOLECULE
CHEMBL522964
   61    64     0     0     0
SMALL
USER_CHARGES

@<TRIPOS>ATOM
      1 C1         -0.2630    1.4338    0.3451 C.3       1 <0>        -0.1848
      2 C2         -0.0191   -0.0707    0.2112 C.3       1 <0>         0.1580
      3 H1         -0.9260   -0.6137    0.4771 H         1 <0>         0.0851
      4 C3          0.3748   -0.4020   -1.2322 C.3       1 <0>         0.0499
      5 N1          0.7569   -1.8177   -1.3195 N.3       1 <0>        -0.5296
      6 C4          1.9413   -2.1016   -0.4982 C.3       1 <0>         0.0459
      7 C5          1.6116   -1.8401    0.9753 C.3       1 <0>         0.1210
      8 N2          1.0781   -0.4747    1.1035 N.pl3     1 <0>        -0.9932
      9 S1          1.6999    0.5808    2.2178 S.o2      1 <0>         2.6878
     10 O1          2.9573    0.0540    2.6188 O.2       1 <0>        -0.9543
     11 O2          1.5605    1.8828    1.6659 O.2       1 <0>        -0.9470
     12 C6          0.6535    0.5194    3.6341 C.ar      1 <0>        -0.6646
     13 C7         -0.4317    1.3705    3.7290 C.ar      1 <0>        -0.0207
     14 C8         -1.2527    1.3224    4.8401 C.ar      1 <0>        -0.1149
     15 C9         -0.9888    0.4229    5.8561 C.ar      1 <0>        -0.0795
     16 C10         0.0958   -0.4288    5.7607 C.ar      1 <0>        -0.1117
     17 C11         0.9143   -0.3836    4.6476 C.ar      1 <0>        -0.0160
     18 C12        -1.8832    0.3711    7.0678 C.3       1 <0>         0.1394
     19 C13        -1.0678   -0.0691    8.2852 C.3       1 <0>        -0.1510
     20 C14        -3.0154   -0.6286    6.8237 C.3       1 <0>         0.4276
     21 F1         -2.4746   -1.8973    6.5887 F         1 <0>        -0.1724
     22 F2         -3.8458   -0.6767    7.9486 F         1 <0>        -0.1691
     23 F3         -3.7611   -0.2260    5.7105 F         1 <0>        -0.1796
     24 O3         -2.4356    1.6670    7.3078 O.3       1 <0>        -0.5173
     25 C15         0.9760   -2.2187   -2.7156 C.3       1 <0>         0.0978
     26 C16         0.9766   -3.7455   -2.8136 C.3       1 <0>        -0.0922
     27 C17         2.2940   -4.4291   -3.1852 C.3       1 <0>        -0.1710
     28 C18         1.1525   -4.3643   -4.2018 C.3       1 <0>        -0.1574
     29 C19         0.0712   -4.4595   -1.8432 C.ar      1 <0>         0.0296
     30 C20        -1.3060   -4.3219   -1.9247 C.ar      1 <0>        -0.1515
     31 C21        -2.1046   -4.9919   -1.0174 C.ar      1 <0>         0.0989
     32 N3         -1.5708   -5.7540   -0.0829 N.ar      1 <0>        -0.4899
     33 C22        -0.2655   -5.9080    0.0245 C.ar      1 <0>         0.0988
     34 C23         0.5955   -5.2741   -0.8513 C.ar      1 <0>        -0.1708
     35 H2          0.5732    1.9779   -0.0941 H         1 <0>         0.0923
     36 H3         -1.1832    1.7003   -0.1748 H         1 <0>         0.0735
     37 H4         -0.3527    1.6949    1.3996 H         1 <0>         0.0691
     38 H5         -0.4712   -0.2121   -1.8927 H         1 <0>         0.0895
     39 H6          1.2174    0.2213   -1.5314 H         1 <0>         0.0440
     40 H7          2.2314   -3.1445   -0.6264 H         1 <0>         0.0918
     41 H8          2.7621   -1.4546   -0.8077 H         1 <0>         0.0411
     42 H9          0.8634   -2.5558    1.3157 H         1 <0>         0.0777
     43 H10         2.5160   -1.9380    1.5758 H         1 <0>         0.0998
     44 H11        -0.6379    2.0733    2.9353 H         1 <0>         0.1501
     45 H12        -2.1001    1.9878    4.9146 H         1 <0>         0.1359
     46 H13         0.3022   -1.1313    6.5546 H         1 <0>         0.1435
     47 H14         1.7595   -1.0516    4.5714 H         1 <0>         0.1466
     48 H15        -0.2612    0.6431    8.4592 H         1 <0>         0.0938
     49 H16        -1.7147   -0.1066    9.1617 H         1 <0>         0.0872
     50 H17        -0.6464   -1.0576    8.1021 H         1 <0>         0.0909
     51 H18        -2.9663    2.0101    6.5759 H         1 <0>         0.3877
     52 H19         0.1783   -1.8149   -3.3391 H         1 <0>         0.0828
     53 H20         1.9358   -1.8322   -3.0583 H         1 <0>         0.0458
     54 H21         3.1603   -3.7910   -3.3599 H         1 <0>         0.0989
     55 H22         2.5062   -5.3953   -2.7277 H         1 <0>         0.0989
     56 H23         0.6136   -5.2879   -4.4131 H         1 <0>         0.0984
     57 H24         1.2677   -3.6835   -5.0453 H         1 <0>         0.1005
     58 H25        -1.7491   -3.6987   -2.6874 H         1 <0>         0.1283
     59 H26        -3.1783   -4.8900   -1.0741 H         1 <0>         0.1509
     60 H27         0.1351   -6.5401    0.8032 H         1 <0>         0.1511
     61 H28         1.6634   -5.4081   -0.7614 H         1 <0>         0.1288
@<TRIPOS>BOND
     1    1    2 1
     2    1   35 1
     3    1   36 1
     4    1   37 1
     5    2    3 1
     6    2    8 1
     7    2    4 1
     8    4    5 1
     9    4   38 1
    10    4   39 1
    11    5    6 1
    12    5   25 1
    13    6    7 1
    14    6   40 1
    15    6   41 1
    16    7    8 1
    17    7   42 1
    18    7   43 1
    19    8    9 1
    20    9   10 2
    21    9   11 2
    22    9   12 1
    23   12   17 ar
    24   12   13 ar
    25   13   14 ar
    26   13   44 1
    27   14   15 ar
    28   14   45 1
    29   15   16 ar
    30   15   18 1
    31   16   17 ar
    32   16   46 1
    33   17   47 1
    34   18   19 1
    35   18   20 1
    36   18   24 1
    37   19   48 1
    38   19   49 1
    39   19   50 1
    40   20   21 1
    41   20   22 1
    42   20   23 1
    43   24   51 1
    44   25   26 1
    45   25   52 1
    46   25   53 1
    47   26   28 1
    48   26   27 1
    49   26   29 1
    50   27   28 1
    51   27   54 1
    52   27   55 1
    53   28   56 1
    54   28   57 1
    55   29   34 ar
    56   29   30 ar
    57   30   31 ar
    58   30   58 1
    59   31   32 ar
    60   31   59 1
    61   32   33 ar
    62   33   34 ar
    63   33   60 1
    64   34   61 1
@<TRIPOS>MOLECULE
CHEMBL522964
   62    65     0     0     0
SMALL
USER_CHARGES

@<TRIPOS>ATOM
      1 C1         -0.2630    1.4338    0.3451 C.3       1 <0>        -0.1892
      2 C2         -0.0191   -0.0707    0.2112 C.3       1 <0>         0.1605
      3 H1         -0.9260   -0.6137    0.4771 H         1 <0>         0.0816
      4 C3          0.3748   -0.4020   -1.2322 C.3       1 <0>         0.0463
      5 N1          0.7569   -1.8177   -1.3195 N.3       1 <0>        -0.5425
      6 C4          1.9413   -2.1016   -0.4982 C.3       1 <0>         0.0376
      7 C5          1.6116   -1.8401    0.9753 C.3       1 <0>         0.1220
      8 N2          1.0781   -0.4747    1.1035 N.pl3     1 <0>        -0.9968
      9 S1          1.6999    0.5808    2.2178 S.o2      1 <0>         2.6867
     10 O1          2.9573    0.0540    2.6188 O.2       1 <0>        -0.9502
     11 O2          1.5605    1.8828    1.6659 O.2       1 <0>        -0.9409
     12 C6          0.6535    0.5194    3.6341 C.ar      1 <0>        -0.6668
     13 C7         -0.4317    1.3705    3.7290 C.ar      1 <0>        -0.0207
     14 C8         -1.2527    1.3224    4.8401 C.ar      1 <0>        -0.1137
     15 C9         -0.9888    0.4229    5.8561 C.ar      1 <0>        -0.0758
     16 C10         0.0958   -0.4288    5.7607 C.ar      1 <0>        -0.1119
     17 C11         0.9143   -0.3836    4.6476 C.ar      1 <0>        -0.0185
     18 C12        -1.8832    0.3711    7.0678 C.3       1 <0>         0.1380
     19 C13        -1.0678   -0.0691    8.2852 C.3       1 <0>        -0.1525
     20 C14        -3.0154   -0.6286    6.8237 C.3       1 <0>         0.4284
     21 F1         -2.4746   -1.8973    6.5887 F         1 <0>        -0.1760
     22 F2         -3.8458   -0.6767    7.9486 F         1 <0>        -0.1658
     23 F3         -3.7611   -0.2260    5.7105 F         1 <0>        -0.1810
     24 O3         -2.4356    1.6670    7.3078 O.3       1 <0>        -0.5144
     25 C15         0.9760   -2.2187   -2.7156 C.3       1 <0>         0.0914
     26 C16         0.9766   -3.7455   -2.8136 C.3       1 <0>        -0.1266
     27 C17         2.2940   -4.4291   -3.1852 C.3       1 <0>        -0.1619
     28 C18         1.1525   -4.3643   -4.2018 C.3       1 <0>        -0.1423
     29 C19         0.0712   -4.4595   -1.8432 C.ar      1 <0>         0.1156
     30 C20        -1.3060   -4.3219   -1.9247 C.ar      1 <0>        -0.1099
     31 C21        -2.1046   -4.9919   -1.0174 C.ar      1 <0>         0.1323
     32 N3         -1.5708   -5.7540   -0.0829 N.ar      1 <0>        -0.4500
     33 C22        -0.2655   -5.9080    0.0245 C.ar      1 <0>         0.1337
     34 C23         0.5955   -5.2741   -0.8513 C.ar      1 <0>        -0.1315
     35 H2          0.5732    1.9779   -0.0941 H         1 <0>         0.0953
     36 H3         -1.1832    1.7003   -0.1748 H         1 <0>         0.0760
     37 H4         -0.3527    1.6949    1.3996 H         1 <0>         0.0720
     38 H5         -0.4712   -0.2121   -1.8927 H         1 <0>         0.0938
     39 H6          1.2174    0.2213   -1.5314 H         1 <0>         0.0526
     40 H7          2.2314   -3.1445   -0.6264 H         1 <0>         0.0873
     41 H8          2.7621   -1.4546   -0.8077 H         1 <0>         0.0523
     42 H9          0.8634   -2.5558    1.3157 H         1 <0>         0.0689
     43 H10         2.5160   -1.9380    1.5758 H         1 <0>         0.1042
     44 H11        -0.6379    2.0733    2.9353 H         1 <0>         0.1507
     45 H12        -2.1001    1.9878    4.9146 H         1 <0>         0.1378
     46 H13         0.3022   -1.1313    6.5546 H         1 <0>         0.1444
     47 H14         1.7595   -1.0516    4.5714 H         1 <0>         0.1459
     48 H15        -0.2612    0.6431    8.4592 H         1 <0>         0.0954
     49 H16        -1.7147   -0.1066    9.1617 H         1 <0>         0.0894
     50 H17        -0.6464   -1.0576    8.1021 H         1 <0>         0.0901
     51 H18        -2.9663    2.0101    6.5759 H         1 <0>         0.3880
     52 H19         0.1783   -1.8149   -3.3391 H         1 <0>         0.0924
     53 H20         1.9358   -1.8322   -3.0583 H         1 <0>         0.0617
     54 H21         3.1603   -3.7910   -3.3599 H         1 <0>         0.1133
     55 H22         2.5062   -5.3953   -2.7277 H         1 <0>         0.1047
     56 H23         0.6136   -5.2879   -4.4131 H         1 <0>         0.1051
     57 H24         1.2677   -3.6835   -5.0453 H         1 <0>         0.1154
     58 H25        -1.7491   -3.6987   -2.6874 H         1 <0>         0.1811
     59 H26        -3.1783   -4.8900   -1.0741 H         1 <0>         0.2077
     60 H27         0.1351   -6.5401    0.8032 H         1 <0>         0.2080
     61 H28         1.6634   -5.4081   -0.7614 H         1 <0>         0.1806
     62 H29        -2.1535   -6.2130    0.5422 H         1 <0>         0.4508
@<TRIPOS>BOND
     1    1    2 1
     2    1   35 1
     3    1   36 1
     4    1   37 1
     5    2    3 1
     6    2    8 1
     7    2    4 1
     8    4    5 1
     9    4   38 1
    10    4   39 1
    11    5    6 1
    12    5   25 1
    13    6    7 1
    14    6   40 1
    15    6   41 1
    16    7    8 1
    17    7   42 1
    18    7   43 1
    19    8    9 1
    20    9   10 2
    21    9   11 2
    22    9   12 1
    23   12   17 ar
    24   12   13 ar
    25   13   14 ar
    26   13   44 1
    27   14   15 ar
    28   14   45 1
    29   15   16 ar
    30   15   18 1
    31   16   17 ar
    32   16   46 1
    33   17   47 1
    34   18   19 1
    35   18   20 1
    36   18   24 1
    37   19   48 1
    38   19   49 1
    39   19   50 1
    40   20   21 1
    41   20   22 1
    42   20   23 1
    43   24   51 1
    44   25   26 1
    45   25   52 1
    46   25   53 1
    47   26   28 1
    48   26   27 1
    49   26   29 1
    50   27   28 1
    51   27   54 1
    52   27   55 1
    53   28   56 1
    54   28   57 1
    55   29   34 ar
    56   29   30 ar
    57   30   31 ar
    58   30   58 1
    59   31   32 ar
    60   31   59 1
    61   32   33 ar
    62   32   62 1
    63   33   34 ar
    64   33   60 1
    65   34   61 1
@<TRIPOS>MOLECULE
CHEMBL522964
   62    65     0     0     0
SMALL
USER_CHARGES

@<TRIPOS>ATOM
      1 C1          0.0662    1.4268    0.5802 C.3       1 <0>        -0.1895
      2 C2          0.1846   -0.0821    0.3566 C.3       1 <0>         0.1337
      3 H1         -0.7764   -0.5578    0.5521 H         1 <0>         0.1037
      4 C3          0.6101   -0.3564   -1.0896 C.3       1 <0>        -0.0188
      5 N1          0.8547   -1.7939   -1.2625 N.4       1 <0>        -0.3823
      6 C4          1.9903   -2.2116   -0.4306 C.3       1 <0>        -0.0235
      7 C5          1.6332   -2.0291    1.0482 C.3       1 <0>         0.0916
      8 N2          1.2040   -0.6373    1.2602 N.pl3     1 <0>        -1.0094
      9 S1          1.8543    0.2797    2.4762 S.o2      1 <0>         2.6907
     10 O1          3.0471   -0.3753    2.8853 O.2       1 <0>        -0.9382
     11 O2          1.8420    1.6257    2.0208 O.2       1 <0>        -0.9330
     12 C6          0.7424    0.1996    3.8407 C.ar      1 <0>        -0.6726
     13 C7         -0.2764    1.1265    3.9574 C.ar      1 <0>        -0.0215
     14 C8         -1.1488    1.0637    5.0279 C.ar      1 <0>        -0.1123
     15 C9         -1.0025    0.0737    5.9815 C.ar      1 <0>        -0.0681
     16 C10         0.0158   -0.8538    5.8643 C.ar      1 <0>        -0.1087
     17 C11         0.8855   -0.7936    4.7915 C.ar      1 <0>        -0.0163
     18 C12        -1.9529    0.0058    7.1491 C.3       1 <0>         0.1362
     19 C13        -1.2308   -0.5873    8.3606 C.3       1 <0>        -0.1535
     20 C14        -3.1470   -0.8783    6.7839 C.3       1 <0>         0.4284
     21 F1         -2.6964   -2.1660    6.4740 F         1 <0>        -0.1740
     22 F2         -4.0293   -0.9414    7.8678 F         1 <0>        -0.1644
     23 F3         -3.8073   -0.3361    5.6761 F         1 <0>        -0.1811
     24 O3         -2.4132    1.3210    7.4657 O.3       1 <0>        -0.5134
     25 C15         1.1553   -2.0714   -2.6734 C.3       1 <0>         0.0373
     26 C16         1.3113   -3.5801   -2.8745 C.3       1 <0>        -0.1469
     27 C17         2.7149   -4.1119   -3.1714 C.3       1 <0>        -0.1570
     28 C18         1.6612   -4.0731   -4.2800 C.3       1 <0>        -0.1269
     29 C19         0.4013   -4.4445   -2.0403 C.ar      1 <0>        -0.0471
     30 C20        -0.9724   -4.4146   -2.2258 C.ar      1 <0>        -0.1750
     31 C21        -1.7755   -5.2213   -1.4421 C.ar      1 <0>         0.1156
     32 N3         -1.2493   -6.0118   -0.5271 N.ar      1 <0>        -0.4688
     33 C22         0.0524   -6.0662   -0.3233 C.ar      1 <0>         0.1164
     34 C23         0.9182   -5.2928   -1.0731 C.ar      1 <0>        -0.1718
     35 H2          0.9813    1.9164    0.2468 H         1 <0>         0.1069
     36 H3         -0.7802    1.8130    0.0123 H         1 <0>         0.0890
     37 H4         -0.0867    1.6260    1.6409 H         1 <0>         0.0869
     38 H5         -0.1816   -0.0383   -1.7680 H         1 <0>         0.1471
     39 H6          1.5228    0.1968   -1.3111 H         1 <0>         0.1409
     40 H7          2.2157   -3.2605   -0.6234 H         1 <0>         0.1451
     41 H8          2.8612   -1.6022   -0.6721 H         1 <0>         0.1396
     42 H9          0.8202   -2.7045    1.3147 H         1 <0>         0.0974
     43 H10         2.5066   -2.2414    1.6648 H         1 <0>         0.1438
     44 H11        -0.3907    1.9001    3.2124 H         1 <0>         0.1499
     45 H12        -1.9443    1.7884    5.1195 H         1 <0>         0.1401
     46 H13         0.1302   -1.6271    6.6095 H         1 <0>         0.1478
     47 H14         1.6788   -1.5205    4.6980 H         1 <0>         0.1480
     48 H15        -0.3801    0.0426    8.6207 H         1 <0>         0.0955
     49 H16        -1.9182   -0.6364    9.2051 H         1 <0>         0.0911
     50 H17        -0.8797   -1.5905    8.1191 H         1 <0>         0.0912
     51 H18        -2.8815    1.7588    6.7417 H         1 <0>         0.3879
     52 H19         0.3408   -1.7040   -3.2976 H         1 <0>         0.1387
     53 H20         2.0819   -1.5699   -2.9529 H         1 <0>         0.1397
     54 H21         3.5272   -3.3869   -3.2235 H         1 <0>         0.1140
     55 H22         2.9804   -5.0871   -2.7632 H         1 <0>         0.1139
     56 H23         1.2334   -5.0228   -4.6012 H         1 <0>         0.1136
     57 H24         1.7802   -3.3226   -5.0614 H         1 <0>         0.1150
     58 H25        -1.4094   -3.7687   -2.9730 H         1 <0>         0.1416
     59 H26        -2.8465   -5.2038   -1.5803 H         1 <0>         0.1657
     60 H27         0.4467   -6.7257    0.4356 H         1 <0>         0.1664
     61 H28         1.9838   -5.3454   -0.9049 H         1 <0>         0.1436
     62 H29         0.0315   -2.3092   -0.9890 H         1 <0>         0.4204
@<TRIPOS>BOND
     1    1    2 1
     2    1   35 1
     3    1   36 1
     4    1   37 1
     5    2    3 1
     6    2    8 1
     7    2    4 1
     8    4    5 1
     9    4   38 1
    10    4   39 1
    11    5    6 1
    12    5   25 1
    13    5   62 1
    14    6    7 1
    15    6   40 1
    16    6   41 1
    17    7    8 1
    18    7   42 1
    19    7   43 1
    20    8    9 1
    21    9   10 2
    22    9   11 2
    23    9   12 1
    24   12   17 ar
    25   12   13 ar
    26   13   14 ar
    27   13   44 1
    28   14   15 ar
    29   14   45 1
    30   15   16 ar
    31   15   18 1
    32   16   17 ar
    33   16   46 1
    34   17   47 1
    35   18   19 1
    36   18   20 1
    37   18   24 1
    38   19   48 1
    39   19   49 1
    40   19   50 1
    41   20   21 1
    42   20   22 1
    43   20   23 1
    44   24   51 1
    45   25   26 1
    46   25   52 1
    47   25   53 1
    48   26   28 1
    49   26   27 1
    50   26   29 1
    51   27   28 1
    52   27   54 1
    53   27   55 1
    54   28   56 1
    55   28   57 1
    56   29   34 ar
    57   29   30 ar
    58   30   31 ar
    59   30   58 1
    60   31   32 ar
    61   31   59 1
    62   32   33 ar
    63   33   34 ar
    64   33   60 1
    65   34   61 1
@<TRIPOS>MOLECULE
CHEMBL522964
   61    64     0     0     0
SMALL
USER_CHARGES

@<TRIPOS>ATOM
      1 C1         -0.2630    1.4338    0.3451 C.3       1 <0>        -0.1850
      2 C2         -0.0191   -0.0707    0.2112 C.3       1 <0>         0.1584
      3 H1         -0.9260   -0.6137    0.4771 H         1 <0>         0.0851
      4 C3          0.3748   -0.4020   -1.2322 C.3       1 <0>         0.0497
      5 N1          0.7569   -1.8177   -1.3195 N.3       1 <0>        -0.5295
      6 C4          1.9413   -2.1016   -0.4982 C.3       1 <0>         0.0458
      7 C5          1.6116   -1.8401    0.9753 C.3       1 <0>         0.1212
      8 N2          1.0781   -0.4747    1.1035 N.pl3     1 <0>        -0.9932
      9 S1          1.6999    0.5808    2.2178 S.o2      1 <0>         2.6876
     10 O1          2.9573    0.0540    2.6188 O.2       1 <0>        -0.9542
     11 O2          1.5605    1.8828    1.6659 O.2       1 <0>        -0.9470
     12 C6          0.6535    0.5194    3.6341 C.ar      1 <0>        -0.6646
     13 C7         -0.4317    1.3705    3.7290 C.ar      1 <0>        -0.0208
     14 C8         -1.2527    1.3224    4.8401 C.ar      1 <0>        -0.1149
     15 C9         -0.9888    0.4229    5.8561 C.ar      1 <0>        -0.0795
     16 C10         0.0958   -0.4288    5.7607 C.ar      1 <0>        -0.1116
     17 C11         0.9143   -0.3836    4.6476 C.ar      1 <0>        -0.0160
     18 C12        -1.8832    0.3711    7.0678 C.3       1 <0>         0.1395
     19 C13        -1.8972   -1.0514    7.6310 C.3       1 <0>        -0.1505
     20 C14        -1.3565    1.3359    8.1321 C.3       1 <0>         0.4270
     21 F1         -1.3437    2.6366    7.6172 F         1 <0>        -0.1794
     22 F2         -2.1868    1.2878    9.2570 F         1 <0>        -0.1690
     23 F3         -0.0573    0.9653    8.4954 F         1 <0>        -0.1726
     24 O3         -3.2103    0.7496    6.6968 O.3       1 <0>        -0.5172
     25 C15         0.9760   -2.2187   -2.7156 C.3       1 <0>         0.0976
     26 C16         0.9766   -3.7455   -2.8136 C.3       1 <0>        -0.0922
     27 C17         2.2940   -4.4291   -3.1852 C.3       1 <0>        -0.1710
     28 C18         1.1525   -4.3643   -4.2018 C.3       1 <0>        -0.1574
     29 C19         0.0712   -4.4595   -1.8432 C.ar      1 <0>         0.0298
     30 C20        -1.3060   -4.3219   -1.9247 C.ar      1 <0>        -0.1514
     31 C21        -2.1046   -4.9919   -1.0174 C.ar      1 <0>         0.0988
     32 N3         -1.5708   -5.7540   -0.0829 N.ar      1 <0>        -0.4901
     33 C22        -0.2655   -5.9080    0.0245 C.ar      1 <0>         0.0986
     34 C23         0.5955   -5.2741   -0.8513 C.ar      1 <0>        -0.1708
     35 H2          0.5732    1.9779   -0.0941 H         1 <0>         0.0922
     36 H3         -1.1832    1.7003   -0.1748 H         1 <0>         0.0735
     37 H4         -0.3527    1.6949    1.3996 H         1 <0>         0.0692
     38 H5         -0.4712   -0.2121   -1.8927 H         1 <0>         0.0895
     39 H6          1.2174    0.2213   -1.5314 H         1 <0>         0.0439
     40 H7          2.2314   -3.1445   -0.6264 H         1 <0>         0.0918
     41 H8          2.7621   -1.4546   -0.8077 H         1 <0>         0.0410
     42 H9          0.8634   -2.5558    1.3157 H         1 <0>         0.0776
     43 H10         2.5160   -1.9380    1.5758 H         1 <0>         0.0997
     44 H11        -0.6379    2.0733    2.9353 H         1 <0>         0.1501
     45 H12        -2.1001    1.9878    4.9146 H         1 <0>         0.1359
     46 H13         0.3022   -1.1313    6.5546 H         1 <0>         0.1436
     47 H14         1.7595   -1.0516    4.5714 H         1 <0>         0.1466
     48 H15        -0.8850   -1.3401    7.9140 H         1 <0>         0.0907
     49 H16        -2.5442   -1.0888    8.5074 H         1 <0>         0.0871
     50 H17        -2.2725   -1.7387    6.8728 H         1 <0>         0.0938
     51 H18        -3.2770    1.6422    6.3309 H         1 <0>         0.3877
     52 H19         0.1783   -1.8149   -3.3391 H         1 <0>         0.0828
     53 H20         1.9358   -1.8322   -3.0583 H         1 <0>         0.0458
     54 H21         3.1603   -3.7910   -3.3599 H         1 <0>         0.0989
     55 H22         2.5062   -5.3953   -2.7277 H         1 <0>         0.0989
     56 H23         0.6136   -5.2879   -4.4131 H         1 <0>         0.0984
     57 H24         1.2677   -3.6835   -5.0453 H         1 <0>         0.1006
     58 H25        -1.7491   -3.6987   -2.6874 H         1 <0>         0.1284
     59 H26        -3.1783   -4.8900   -1.0741 H         1 <0>         0.1510
     60 H27         0.1351   -6.5401    0.8032 H         1 <0>         0.1511
     61 H28         1.6634   -5.4081   -0.7614 H         1 <0>         0.1288
@<TRIPOS>BOND
     1    1    2 1
     2    1   35 1
     3    1   36 1
     4    1   37 1
     5    2    3 1
     6    2    8 1
     7    2    4 1
     8    4    5 1
     9    4   38 1
    10    4   39 1
    11    5    6 1
    12    5   25 1
    13    6    7 1
    14    6   40 1
    15    6   41 1
    16    7    8 1
    17    7   42 1
    18    7   43 1
    19    8    9 1
    20    9   10 2
    21    9   11 2
    22    9   12 1
    23   12   17 ar
    24   12   13 ar
    25   13   14 ar
    26   13   44 1
    27   14   15 ar
    28   14   45 1
    29   15   16 ar
    30   15   18 1
    31   16   17 ar
    32   16   46 1
    33   17   47 1
    34   18   19 1
    35   18   20 1
    36   18   24 1
    37   19   48 1
    38   19   49 1
    39   19   50 1
    40   20   21 1
    41   20   22 1
    42   20   23 1
    43   24   51 1
    44   25   26 1
    45   25   52 1
    46   25   53 1
    47   26   28 1
    48   26   27 1
    49   26   29 1
    50   27   28 1
    51   27   54 1
    52   27   55 1
    53   28   56 1
    54   28   57 1
    55   29   34 ar
    56   29   30 ar
    57   30   31 ar
    58   30   58 1
    59   31   32 ar
    60   31   59 1
    61   32   33 ar
    62   33   34 ar
    63   33   60 1
    64   34   61 1
@<TRIPOS>MOLECULE
CHEMBL522964
   62    65     0     0     0
SMALL
USER_CHARGES

@<TRIPOS>ATOM
      1 C1         -0.2630    1.4338    0.3451 C.3       1 <0>        -0.1894
      2 C2         -0.0191   -0.0707    0.2112 C.3       1 <0>         0.1609
      3 H1         -0.9260   -0.6137    0.4771 H         1 <0>         0.0816
      4 C3          0.3748   -0.4020   -1.2322 C.3       1 <0>         0.0461
      5 N1          0.7569   -1.8177   -1.3195 N.3       1 <0>        -0.5423
      6 C4          1.9413   -2.1016   -0.4982 C.3       1 <0>         0.0374
      7 C5          1.6116   -1.8401    0.9753 C.3       1 <0>         0.1222
      8 N2          1.0781   -0.4747    1.1035 N.pl3     1 <0>        -0.9967
      9 S1          1.6999    0.5808    2.2178 S.o2      1 <0>         2.6864
     10 O1          2.9573    0.0540    2.6188 O.2       1 <0>        -0.9501
     11 O2          1.5605    1.8828    1.6659 O.2       1 <0>        -0.9408
     12 C6          0.6535    0.5194    3.6341 C.ar      1 <0>        -0.6668
     13 C7         -0.4317    1.3705    3.7290 C.ar      1 <0>        -0.0207
     14 C8         -1.2527    1.3224    4.8401 C.ar      1 <0>        -0.1136
     15 C9         -0.9888    0.4229    5.8561 C.ar      1 <0>        -0.0759
     16 C10         0.0958   -0.4288    5.7607 C.ar      1 <0>        -0.1121
     17 C11         0.9143   -0.3836    4.6476 C.ar      1 <0>        -0.0184
     18 C12        -1.8832    0.3711    7.0678 C.3       1 <0>         0.1379
     19 C13        -1.8972   -1.0514    7.6310 C.3       1 <0>        -0.1497
     20 C14        -1.3565    1.3359    8.1321 C.3       1 <0>         0.4267
     21 F1         -1.3437    2.6366    7.6172 F         1 <0>        -0.1785
     22 F2         -2.1868    1.2878    9.2570 F         1 <0>        -0.1668
     23 F3         -0.0573    0.9653    8.4954 F         1 <0>        -0.1723
     24 O3         -3.2103    0.7496    6.6968 O.3       1 <0>        -0.5176
     25 C15         0.9760   -2.2187   -2.7156 C.3       1 <0>         0.0913
     26 C16         0.9766   -3.7455   -2.8136 C.3       1 <0>        -0.1267
     27 C17         2.2940   -4.4291   -3.1852 C.3       1 <0>        -0.1619
     28 C18         1.1525   -4.3643   -4.2018 C.3       1 <0>        -0.1423
     29 C19         0.0712   -4.4595   -1.8432 C.ar      1 <0>         0.1158
     30 C20        -1.3060   -4.3219   -1.9247 C.ar      1 <0>        -0.1099
     31 C21        -2.1046   -4.9919   -1.0174 C.ar      1 <0>         0.1324
     32 N3         -1.5708   -5.7540   -0.0829 N.ar      1 <0>        -0.4501
     33 C22        -0.2655   -5.9080    0.0245 C.ar      1 <0>         0.1336
     34 C23         0.5955   -5.2741   -0.8513 C.ar      1 <0>        -0.1315
     35 H2          0.5732    1.9779   -0.0941 H         1 <0>         0.0952
     36 H3         -1.1832    1.7003   -0.1748 H         1 <0>         0.0760
     37 H4         -0.3527    1.6949    1.3996 H         1 <0>         0.0721
     38 H5         -0.4712   -0.2121   -1.8927 H         1 <0>         0.0938
     39 H6          1.2174    0.2213   -1.5314 H         1 <0>         0.0526
     40 H7          2.2314   -3.1445   -0.6264 H         1 <0>         0.0873
     41 H8          2.7621   -1.4546   -0.8077 H         1 <0>         0.0523
     42 H9          0.8634   -2.5558    1.3157 H         1 <0>         0.0688
     43 H10         2.5160   -1.9380    1.5758 H         1 <0>         0.1041
     44 H11        -0.6379    2.0733    2.9353 H         1 <0>         0.1507
     45 H12        -2.1001    1.9878    4.9146 H         1 <0>         0.1378
     46 H13         0.3022   -1.1313    6.5546 H         1 <0>         0.1444
     47 H14         1.7595   -1.0516    4.5714 H         1 <0>         0.1459
     48 H15        -0.8850   -1.3401    7.9140 H         1 <0>         0.0910
     49 H16        -2.5442   -1.0888    8.5074 H         1 <0>         0.0892
     50 H17        -2.2725   -1.7387    6.8728 H         1 <0>         0.0907
     51 H18        -3.2770    1.6422    6.3309 H         1 <0>         0.3890
     52 H19         0.1783   -1.8149   -3.3391 H         1 <0>         0.0925
     53 H20         1.9358   -1.8322   -3.0583 H         1 <0>         0.0617
     54 H21         3.1603   -3.7910   -3.3599 H         1 <0>         0.1133
     55 H22         2.5062   -5.3953   -2.7277 H         1 <0>         0.1047
     56 H23         0.6136   -5.2879   -4.4131 H         1 <0>         0.1051
     57 H24         1.2677   -3.6835   -5.0453 H         1 <0>         0.1154
     58 H25        -1.7491   -3.6987   -2.6874 H         1 <0>         0.1811
     59 H26        -3.1783   -4.8900   -1.0741 H         1 <0>         0.2077
     60 H27         0.1351   -6.5401    0.8032 H         1 <0>         0.2080
     61 H28         1.6634   -5.4081   -0.7614 H         1 <0>         0.1806
     62 H29        -2.1535   -6.2130    0.5422 H         1 <0>         0.4507
@<TRIPOS>BOND
     1    1    2 1
     2    1   35 1
     3    1   36 1
     4    1   37 1
     5    2    3 1
     6    2    8 1
     7    2    4 1
     8    4    5 1
     9    4   38 1
    10    4   39 1
    11    5    6 1
    12    5   25 1
    13    6    7 1
    14    6   40 1
    15    6   41 1
    16    7    8 1
    17    7   42 1
    18    7   43 1
    19    8    9 1
    20    9   10 2
    21    9   11 2
    22    9   12 1
    23   12   17 ar
    24   12   13 ar
    25   13   14 ar
    26   13   44 1
    27   14   15 ar
    28   14   45 1
    29   15   16 ar
    30   15   18 1
    31   16   17 ar
    32   16   46 1
    33   17   47 1
    34   18   19 1
    35   18   20 1
    36   18   24 1
    37   19   48 1
    38   19   49 1
    39   19   50 1
    40   20   21 1
    41   20   22 1
    42   20   23 1
    43   24   51 1
    44   25   26 1
    45   25   52 1
    46   25   53 1
    47   26   28 1
    48   26   27 1
    49   26   29 1
    50   27   28 1
    51   27   54 1
    52   27   55 1
    53   28   56 1
    54   28   57 1
    55   29   34 ar
    56   29   30 ar
    57   30   31 ar
    58   30   58 1
    59   31   32 ar
    60   31   59 1
    61   32   33 ar
    62   32   62 1
    63   33   34 ar
    64   33   60 1
    65   34   61 1
@<TRIPOS>MOLECULE
CHEMBL522964
   62    65     0     0     0
SMALL
USER_CHARGES

@<TRIPOS>ATOM
      1 C1          0.0662    1.4268    0.5802 C.3       1 <0>        -0.1897
      2 C2          0.1846   -0.0821    0.3566 C.3       1 <0>         0.1341
      3 H1         -0.7764   -0.5578    0.5521 H         1 <0>         0.1038
      4 C3          0.6101   -0.3564   -1.0896 C.3       1 <0>        -0.0189
      5 N1          0.8547   -1.7939   -1.2625 N.4       1 <0>        -0.3821
      6 C4          1.9903   -2.2116   -0.4306 C.3       1 <0>        -0.0237
      7 C5          1.6332   -2.0291    1.0482 C.3       1 <0>         0.0918
      8 N2          1.2040   -0.6373    1.2602 N.pl3     1 <0>        -1.0093
      9 S1          1.8543    0.2797    2.4762 S.o2      1 <0>         2.6904
     10 O1          3.0471   -0.3753    2.8853 O.2       1 <0>        -0.9381
     11 O2          1.8420    1.6257    2.0208 O.2       1 <0>        -0.9329
     12 C6          0.7424    0.1996    3.8407 C.ar      1 <0>        -0.6725
     13 C7         -0.2764    1.1265    3.9574 C.ar      1 <0>        -0.0215
     14 C8         -1.1488    1.0637    5.0279 C.ar      1 <0>        -0.1122
     15 C9         -1.0025    0.0737    5.9815 C.ar      1 <0>        -0.0682
     16 C10         0.0158   -0.8538    5.8643 C.ar      1 <0>        -0.1088
     17 C11         0.8855   -0.7936    4.7915 C.ar      1 <0>        -0.0163
     18 C12        -1.9529    0.0058    7.1491 C.3       1 <0>         0.1361
     19 C13        -2.1033   -1.4484    7.6003 C.3       1 <0>        -0.1518
     20 C14        -1.4020    0.8439    8.3045 C.3       1 <0>         0.4271
     21 F1         -1.2645    2.1736    7.8919 F         1 <0>        -0.1791
     22 F2         -2.2843    0.7809    9.3884 F         1 <0>        -0.1651
     23 F3         -0.1536    0.3437    8.6897 F         1 <0>        -0.1722
     24 O3         -3.2281    0.5167    6.7556 O.3       1 <0>        -0.5154
     25 C15         1.1553   -2.0714   -2.6734 C.3       1 <0>         0.0373
     26 C16         1.3113   -3.5801   -2.8745 C.3       1 <0>        -0.1470
     27 C17         2.7149   -4.1119   -3.1714 C.3       1 <0>        -0.1571
     28 C18         1.6612   -4.0731   -4.2800 C.3       1 <0>        -0.1269
     29 C19         0.4013   -4.4445   -2.0403 C.ar      1 <0>        -0.0469
     30 C20        -0.9724   -4.4146   -2.2258 C.ar      1 <0>        -0.1749
     31 C21        -1.7755   -5.2213   -1.4421 C.ar      1 <0>         0.1156
     32 N3         -1.2493   -6.0118   -0.5271 N.ar      1 <0>        -0.4689
     33 C22         0.0524   -6.0662   -0.3233 C.ar      1 <0>         0.1163
     34 C23         0.9182   -5.2928   -1.0731 C.ar      1 <0>        -0.1718
     35 H2          0.9813    1.9164    0.2468 H         1 <0>         0.1068
     36 H3         -0.7802    1.8130    0.0123 H         1 <0>         0.0890
     37 H4         -0.0867    1.6260    1.6409 H         1 <0>         0.0870
     38 H5         -0.1816   -0.0383   -1.7680 H         1 <0>         0.1472
     39 H6          1.5228    0.1968   -1.3111 H         1 <0>         0.1408
     40 H7          2.2157   -3.2605   -0.6234 H         1 <0>         0.1451
     41 H8          2.8612   -1.6022   -0.6721 H         1 <0>         0.1396
     42 H9          0.8202   -2.7045    1.3147 H         1 <0>         0.0973
     43 H10         2.5066   -2.2414    1.6648 H         1 <0>         0.1437
     44 H11        -0.3907    1.9001    3.2124 H         1 <0>         0.1499
     45 H12        -1.9443    1.7884    5.1195 H         1 <0>         0.1401
     46 H13         0.1302   -1.6271    6.6095 H         1 <0>         0.1478
     47 H14         1.6788   -1.5205    4.6980 H         1 <0>         0.1480
     48 H15        -1.1306   -1.8382    7.9005 H         1 <0>         0.0916
     49 H16        -2.7907   -1.4975    8.4448 H         1 <0>         0.0909
     50 H17        -2.4958   -2.0455    6.7772 H         1 <0>         0.0930
     51 H18        -3.2082    1.4363    6.4570 H         1 <0>         0.3884
     52 H19         0.3408   -1.7040   -3.2976 H         1 <0>         0.1387
     53 H20         2.0819   -1.5699   -2.9529 H         1 <0>         0.1396
     54 H21         3.5272   -3.3869   -3.2235 H         1 <0>         0.1140
     55 H22         2.9804   -5.0871   -2.7632 H         1 <0>         0.1139
     56 H23         1.2334   -5.0228   -4.6012 H         1 <0>         0.1136
     57 H24         1.7802   -3.3226   -5.0614 H         1 <0>         0.1150
     58 H25        -1.4094   -3.7687   -2.9730 H         1 <0>         0.1416
     59 H26        -2.8465   -5.2038   -1.5803 H         1 <0>         0.1657
     60 H27         0.4467   -6.7257    0.4356 H         1 <0>         0.1664
     61 H28         1.9838   -5.3454   -0.9049 H         1 <0>         0.1435
     62 H29         0.0315   -2.3092   -0.9890 H         1 <0>         0.4204
@<TRIPOS>BOND
     1    1    2 1
     2    1   35 1
     3    1   36 1
     4    1   37 1
     5    2    3 1
     6    2    8 1
     7    2    4 1
     8    4    5 1
     9    4   38 1
    10    4   39 1
    11    5    6 1
    12    5   25 1
    13    5   62 1
    14    6    7 1
    15    6   40 1
    16    6   41 1
    17    7    8 1
    18    7   42 1
    19    7   43 1
    20    8    9 1
    21    9   10 2
    22    9   11 2
    23    9   12 1
    24   12   17 ar
    25   12   13 ar
    26   13   14 ar
    27   13   44 1
    28   14   15 ar
    29   14   45 1
    30   15   16 ar
    31   15   18 1
    32   16   17 ar
    33   16   46 1
    34   17   47 1
    35   18   19 1
    36   18   20 1
    37   18   24 1
    38   19   48 1
    39   19   49 1
    40   19   50 1
    41   20   21 1
    42   20   22 1
    43   20   23 1
    44   24   51 1
    45   25   26 1
    46   25   52 1
    47   25   53 1
    48   26   28 1
    49   26   27 1
    50   26   29 1
    51   27   28 1
    52   27   54 1
    53   27   55 1
    54   28   56 1
    55   28   57 1
    56   29   34 ar
    57   29   30 ar
    58   30   31 ar
    59   30   58 1
    60   31   32 ar
    61   31   59 1
    62   32   33 ar
    63   33   34 ar
    64   33   60 1
    65   34   61 1
@<TRIPOS>MOLECULE
CHEMBL1209016
   74    79     0     0     0
SMALL
USER_CHARGES

@<TRIPOS>ATOM
      1 C1         -0.0052    1.5022    0.2557 C.3       1 <0>        -0.1755
      2 C2          0.0030   -0.0065    0.0012 C.3       1 <0>         0.1178
      3 H1          0.5787   -0.5035    0.7820 H         1 <0>         0.0890
      4 C3          0.6297   -0.2862   -1.3404 C.ar      1 <0>        -0.0863
      5 C4         -0.1684   -0.4296   -2.4599 C.ar      1 <0>        -0.0767
      6 C5          0.4063   -0.6861   -3.6905 C.ar      1 <0>        -0.1129
      7 C6          1.7797   -0.7994   -3.8026 C.ar      1 <0>        -0.0999
      8 C7          2.5787   -0.6563   -2.6841 C.ar      1 <0>        -0.1101
      9 C8          2.0043   -0.3938   -1.4529 C.ar      1 <0>        -0.0266
     10 Cl1         3.0077   -0.2072   -0.0486 Cl        1 <0>        -0.0679
     11 O1         -1.3386   -0.4987    0.0122 O.3       1 <0>        -0.2586
     12 C9         -1.8684   -0.8173    1.2210 C.2       1 <0>         0.2002
     13 C10        -1.1785   -0.5658    2.3813 C.2       1 <0>        -0.2309
     14 C11        -1.7460   -0.9014    3.5808 C.2       1 <0>         0.1120
     15 S1         -3.3113   -1.5995    3.0825 S.3       1 <0>         0.1461
     16 C12        -3.1295   -1.4030    1.3173 C.2       1 <0>        -0.2739
     17 C13        -4.0295   -1.7528    0.2856 C.2       1 <0>         0.6112
     18 O2         -3.7333   -1.5445   -0.8776 O.2       1 <0>        -0.5147
     19 N1         -5.2155   -2.3168    0.5884 N.am      1 <0>        -0.8532
     20 N2         -1.2325   -0.7393    4.8642 N.pl3     1 <0>        -0.4139
     21 C14         0.0069   -1.1132    5.2927 C.2       1 <0>         0.2838
     22 N3          0.1549   -0.8114    6.5493 N.2       1 <0>        -0.4720
     23 C15        -0.9777   -0.2232    7.0161 C.ar      1 <0>         0.0640
     24 C16        -1.8824   -0.1633    5.9418 C.ar      1 <0>         0.0418
     25 C17        -3.1392    0.3987    6.1193 C.ar      1 <0>        -0.0963
     26 C18        -3.5008    0.9016    7.3490 C.ar      1 <0>        -0.0929
     27 C19        -2.6082    0.8498    8.4229 C.ar      1 <0>        -0.0010
     28 C20        -1.3517    0.2845    8.2611 C.ar      1 <0>        -0.0578
     29 C21        -3.0091    1.3953    9.7448 C.2       1 <0>        -0.1860
     30 C22        -2.2184    1.4181   10.9099 C.2       1 <0>         0.0750
     31 N4         -2.9167    1.9755   11.8637 N.2       1 <0>        -0.2962
     32 N5         -4.1705    2.3275   11.3494 N.pl3     1 <0>        -0.3780
     33 C23        -4.2079    1.9705   10.0494 C.2       1 <0>         0.0747
     34 C24        -5.2525    2.9773   12.0933 C.3       1 <0>         0.1402
     35 C25        -5.5803    2.1536   13.3403 C.3       1 <0>         0.0431
     36 N6         -6.6652    2.8052   14.0862 N.3       1 <0>        -0.5381
     37 C26        -6.2269    4.0973   14.6324 C.3       1 <0>         0.0171
     38 C27        -7.4002    4.7691   15.3492 C.3       1 <0>        -0.0020
     39 N7         -7.8773    3.8974   16.4308 N.4       1 <0>        -0.3891
     40 C28        -8.3345    2.6203   15.8672 C.3       1 <0>        -0.0018
     41 C29        -7.1690    1.9307   15.1547 C.3       1 <0>         0.0268
     42 C30        -8.9919    4.5506   17.1302 C.3       1 <0>        -0.0458
     43 H2          1.0180    1.8776    0.2474 H         1 <0>         0.0811
     44 H3         -0.5810    1.9992   -0.5250 H         1 <0>         0.0765
     45 H4         -0.4586    1.7045    1.2261 H         1 <0>         0.0671
     46 H5         -1.2413   -0.3416   -2.3729 H         1 <0>         0.1452
     47 H6         -0.2177   -0.7985   -4.5648 H         1 <0>         0.1338
     48 H7          2.2282   -1.0002   -4.7643 H         1 <0>         0.1358
     49 H8          3.6514   -0.7451   -2.7717 H         1 <0>         0.1378
     50 H9         -0.2003   -0.1093    2.3478 H         1 <0>         0.1601
     51 H10        -5.4513   -2.4827    1.5146 H         1 <0>         0.3968
     52 H11        -5.8333   -2.5569   -0.1198 H         1 <0>         0.4106
     53 H12         0.7561   -1.5906    4.6786 H         1 <0>         0.2226
     54 H13        -3.8332    0.4419    5.2929 H         1 <0>         0.1282
     55 H14        -4.4792    1.3386    7.4841 H         1 <0>         0.1325
     56 H15        -0.6625    0.2469    9.0917 H         1 <0>         0.1360
     57 H16        -1.2107    1.0403   10.9998 H         1 <0>         0.1897
     58 H17        -5.0376    2.1121    9.3726 H         1 <0>         0.1798
     59 H18        -4.9389    3.9779   12.3909 H         1 <0>         0.0844
     60 H19        -6.1374    3.0469   11.4608 H         1 <0>         0.1087
     61 H20        -5.8938    1.1530   13.0427 H         1 <0>         0.0952
     62 H21        -4.6953    2.0840   13.9728 H         1 <0>         0.0654
     63 H22        -5.4130    3.9361   15.3393 H         1 <0>         0.0656
     64 H23        -5.8823    4.7374   13.8202 H         1 <0>         0.1245
     65 H24        -7.0734    5.7212   15.7673 H         1 <0>         0.1372
     66 H25        -8.2087    4.9426   14.6390 H         1 <0>         0.1386
     67 H26        -8.7004    1.9794   16.6694 H         1 <0>         0.1376
     68 H27        -9.1381    2.8048   15.1543 H         1 <0>         0.1386
     69 H28        -7.5116    0.9900   14.7236 H         1 <0>         0.1252
     70 H29        -6.3706    1.7338   15.8702 H         1 <0>         0.0639
     71 H30        -9.8040    4.7349   16.4270 H         1 <0>         0.1235
     72 H31        -9.3461    3.9038   17.9329 H         1 <0>         0.1248
     73 H32        -8.6525    5.4977   17.5497 H         1 <0>         0.1248
     74 H33        -7.1255    3.7275   17.0820 H         1 <0>         0.4234
@<TRIPOS>BOND
     1    1    2 1
     2    1   43 1
     3    1   44 1
     4    1   45 1
     5    2    3 1
     6    2    4 1
     7    2   11 1
     8    4    9 ar
     9    4    5 ar
    10    5    6 ar
    11    5   46 1
    12    6    7 ar
    13    6   47 1
    14    7    8 ar
    15    7   48 1
    16    8    9 ar
    17    8   49 1
    18    9   10 1
    19   11   12 1
    20   12   16 2
    21   12   13 1
    22   13   14 2
    23   13   50 1
    24   14   15 1
    25   14   20 1
    26   15   16 1
    27   16   17 1
    28   17   18 2
    29   17   19 am
    30   19   51 1
    31   19   52 1
    32   20   24 1
    33   20   21 1
    34   21   22 2
    35   21   53 1
    36   22   23 1
    37   23   28 ar
    38   23   24 ar
    39   24   25 ar
    40   25   26 ar
    41   25   54 1
    42   26   27 ar
    43   26   55 1
    44   27   28 ar
    45   27   29 1
    46   28   56 1
    47   29   33 2
    48   29   30 1
    49   30   31 2
    50   30   57 1
    51   31   32 1
    52   32   33 1
    53   32   34 1
    54   33   58 1
    55   34   35 1
    56   34   59 1
    57   34   60 1
    58   35   36 1
    59   35   61 1
    60   35   62 1
    61   36   41 1
    62   36   37 1
    63   37   38 1
    64   37   63 1
    65   37   64 1
    66   38   39 1
    67   38   65 1
    68   38   66 1
    69   39   40 1
    70   39   42 1
    71   39   74 1
    72   40   41 1
    73   40   67 1
    74   40   68 1
    75   41   69 1
    76   41   70 1
    77   42   71 1
    78   42   72 1
    79   42   73 1
@<TRIPOS>MOLECULE
CHEMBL1222883
   36    37     0     0     0
SMALL
USER_CHARGES

@<TRIPOS>ATOM
      1 C1         -0.0178    1.4608    0.0101 C.3       1 <0>         0.0928
      2 N1          0.0021   -0.0041    0.0020 N.am      1 <0>        -0.6034
      3 C2         -1.1983   -0.8485    0.0031 C.3       1 <0>         0.1159
      4 H1         -1.9335   -0.4599   -0.7015 H         1 <0>         0.1128
      5 C3         -0.7183   -2.2476   -0.4424 C.3       1 <0>        -0.1200
      6 C4          0.7699   -2.2185   -0.0238 C.3       1 <0>        -0.1565
      7 C5          1.1220   -0.7473   -0.0131 C.2       1 <0>         0.5253
      8 O1          2.2505   -0.3031   -0.0153 O.2       1 <0>        -0.5237
      9 C6         -1.7883   -0.9143    1.3883 C.2       1 <0>         0.5030
     10 O2         -1.1132   -0.6136    2.3499 O.2       1 <0>        -0.5172
     11 N2         -3.0663   -1.3072    1.5584 N.am      1 <0>        -0.7232
     12 C7         -3.6399   -1.3711    2.9049 C.3       1 <0>         0.1599
     13 C8         -5.0711   -1.8355    2.8197 C.ar      1 <0>        -0.1048
     14 C9         -6.1012   -0.9158    2.8826 C.ar      1 <0>        -0.0550
     15 C10        -7.4139   -1.3416    2.8045 C.ar      1 <0>        -0.1140
     16 C11        -7.6974   -2.6875    2.6633 C.ar      1 <0>        -0.0513
     17 C12        -6.6684   -3.6078    2.6003 C.ar      1 <0>        -0.1785
     18 C13        -5.3540   -3.1816    2.6728 C.ar      1 <0>         0.0191
     19 Cl1        -4.0607   -4.3364    2.5871 Cl        1 <0>        -0.0317
     20 C14        -6.9777   -5.0747    2.4470 C.3       1 <0>         0.5092
     21 F1         -8.3638   -5.2558    2.3914 F         1 <0>        -0.1728
     22 F2         -6.3973   -5.5528    1.2672 F         1 <0>        -0.1689
     23 F3         -6.4591   -5.7774    3.5399 F         1 <0>        -0.1682
     24 H2          1.0048    1.8381    0.0023 H         1 <0>         0.0872
     25 H3         -0.5450    1.8219   -0.8730 H         1 <0>         0.0635
     26 H4         -0.5280    1.8123    0.9069 H         1 <0>         0.0627
     27 H5         -1.2575   -3.0323    0.0882 H         1 <0>         0.0960
     28 H6         -0.8178   -2.3689   -1.5211 H         1 <0>         0.0998
     29 H7          0.8956   -2.6520    0.9684 H         1 <0>         0.1083
     30 H8          1.3819   -2.7491   -0.7532 H         1 <0>         0.1090
     31 H9         -3.6062   -1.5476    0.7892 H         1 <0>         0.4036
     32 H10        -3.0661   -2.0717    3.5114 H         1 <0>         0.0880
     33 H11        -3.6055   -0.3821    3.3618 H         1 <0>         0.0878
     34 H12        -5.8803    0.1355    2.9932 H         1 <0>         0.1465
     35 H13        -8.2183   -0.6228    2.8540 H         1 <0>         0.1474
     36 H14        -8.7233   -3.0196    2.6027 H         1 <0>         0.1514
@<TRIPOS>BOND
     1    1    2 1
     2    1   24 1
     3    1   25 1
     4    1   26 1
     5    2    7 am
     6    2    3 1
     7    3    4 1
     8    3    5 1
     9    3    9 1
    10    5    6 1
    11    5   27 1
    12    5   28 1
    13    6    7 1
    14    6   29 1
    15    6   30 1
    16    7    8 2
    17    9   10 2
    18    9   11 am
    19   11   12 1
    20   11   31 1
    21   12   13 1
    22   12   32 1
    23   12   33 1
    24   13   18 ar
    25   13   14 ar
    26   14   15 ar
    27   14   34 1
    28   15   16 ar
    29   15   35 1
    30   16   17 ar
    31   16   36 1
    32   17   18 ar
    33   17   20 1
    34   18   19 1
    35   20   21 1
    36   20   22 1
    37   20   23 1
@<TRIPOS>MOLECULE
CHEMBL1080046
   61    64     0     0     0
SMALL
USER_CHARGES

@<TRIPOS>ATOM
      1 C1          3.6844   -4.3158   15.9631 C.3       1 <0>        -0.1540
      2 C2          3.7401   -5.5190   15.0197 C.3       1 <0>        -0.1254
      3 C3          3.7665   -5.0299   13.5703 C.3       1 <0>        -0.1132
      4 C4          3.8221   -6.2331   12.6269 C.3       1 <0>        -0.0923
      5 C5          3.8481   -5.7514   11.1992 C.ar      1 <0>        -0.0203
      6 C6          2.6635   -5.5553   10.5143 C.ar      1 <0>        -0.1376
      7 C7          2.6873   -5.1133    9.2047 C.ar      1 <0>        -0.0101
      8 C8          3.8957   -4.8671    8.5802 C.ar      1 <0>        -0.6788
      9 C9          5.0803   -5.0623    9.2654 C.ar      1 <0>        -0.0153
     10 C10         5.0563   -5.5001   10.5764 C.ar      1 <0>        -0.1396
     11 S1          3.9261   -4.3049    6.9106 S.o2      1 <0>         2.6881
     12 O1          5.1391   -4.7809    6.3437 O.2       1 <0>        -0.9544
     13 O2          2.6542   -4.6110    6.3557 O.2       1 <0>        -0.9480
     14 N1          4.0392   -2.6532    6.9520 N.pl3     1 <0>        -1.0621
     15 C11         3.0135   -1.8971    7.5240 C.ar      1 <0>         0.1170
     16 C12         1.8162   -1.7204    6.8419 C.ar      1 <0>        -0.1050
     17 C13         0.8019   -0.9728    7.4089 C.ar      1 <0>        -0.1074
     18 C14         0.9849   -0.4030    8.6563 C.ar      1 <0>        -0.0690
     19 C15         2.1677   -0.5758    9.3334 C.ar      1 <0>        -0.0766
     20 C16         3.1872   -1.3253    8.7789 C.ar      1 <0>        -0.1045
     21 C17         2.3539    0.0532   10.6988 C.3       1 <0>        -0.0775
     22 C18         2.4411    1.5722   10.5210 C.3       1 <0>         0.0787
     23 N2          1.1145    2.1654   10.4792 N.3       1 <0>        -0.5599
     24 C19         0.3104    1.8832    9.3014 C.3       1 <0>         0.0699
     25 C20        -0.1273    0.4160    9.2785 C.3       1 <0>        -0.0793
     26 C21         1.1751    3.6095   10.7416 C.3       1 <0>         0.1435
     27 C22        -0.2207    4.1442   10.9339 C.2       1 <0>         0.0831
     28 C23        -0.8673    4.3266   12.1607 C.2       1 <0>        -0.2551
     29 C24        -2.1009    4.8237   11.9112 C.2       1 <0>         0.0571
     30 N3         -2.2303    4.9513   10.5741 N.pl3     1 <0>        -0.4763
     31 H1         -3.0117    5.2841   10.1055 H         1 <0>         0.4395
     32 N4         -1.0348    4.5232    9.9824 N.2       1 <0>        -0.2924
     33 H2          2.7846   -3.7354   15.7591 H         1 <0>         0.0545
     34 H3          3.6657   -4.6642   16.9957 H         1 <0>         0.0550
     35 H4          4.5634   -3.6904   15.8066 H         1 <0>         0.0540
     36 H5          4.6399   -6.0994   15.2238 H         1 <0>         0.0624
     37 H6          2.8612   -6.1444   15.1762 H         1 <0>         0.0626
     38 H7          2.8666   -4.4495   13.3662 H         1 <0>         0.0656
     39 H8          4.6454   -4.4045   13.4138 H         1 <0>         0.0649
     40 H9          4.7219   -6.8135   12.8309 H         1 <0>         0.0784
     41 H10         2.9432   -6.8585   12.7834 H         1 <0>         0.0786
     42 H11         1.7194   -5.7477   11.0022 H         1 <0>         0.1321
     43 H12         1.7618   -4.9608    8.6693 H         1 <0>         0.1399
     44 H13         6.0244   -4.8702    8.7774 H         1 <0>         0.1379
     45 H14         5.9817   -5.6491   11.1129 H         1 <0>         0.1323
     46 H15         4.8178   -2.2109    6.5791 H         1 <0>         0.4248
     47 H16         1.6783   -2.1671    5.8683 H         1 <0>         0.1341
     48 H17        -0.1297   -0.8336    6.8805 H         1 <0>         0.1302
     49 H18         4.1144   -1.4630    9.3153 H         1 <0>         0.1278
     50 H19         1.5049   -0.1940   11.3361 H         1 <0>         0.0895
     51 H20         3.2738   -0.3171   11.1515 H         1 <0>         0.0783
     52 H21         2.9987    1.9993   11.3545 H         1 <0>         0.0805
     53 H22         2.9627    1.7948    9.5901 H         1 <0>         0.0352
     54 H23        -0.5736    2.5210    9.3097 H         1 <0>         0.0921
     55 H24         0.8967    2.0962    8.4076 H         1 <0>         0.0326
     56 H25        -1.0357    0.3129    8.6850 H         1 <0>         0.0768
     57 H26        -0.3118    0.0719   10.2962 H         1 <0>         0.0877
     58 H27         1.7609    3.7908   11.6428 H         1 <0>         0.0956
     59 H28         1.6438    4.1131    9.8962 H         1 <0>         0.0486
     60 H29        -0.4551    4.1086   13.1348 H         1 <0>         0.1482
     61 H30        -2.8482    5.0732   12.6500 H         1 <0>         0.1767
@<TRIPOS>BOND
     1    1    2 1
     2    1   33 1
     3    1   34 1
     4    1   35 1
     5    2    3 1
     6    2   36 1
     7    2   37 1
     8    3    4 1
     9    3   38 1
    10    3   39 1
    11    4    5 1
    12    4   40 1
    13    4   41 1
    14    5   10 ar
    15    5    6 ar
    16    6    7 ar
    17    6   42 1
    18    7    8 ar
    19    7   43 1
    20    8    9 ar
    21    8   11 1
    22    9   10 ar
    23    9   44 1
    24   10   45 1
    25   11   12 2
    26   11   13 2
    27   11   14 1
    28   14   15 1
    29   14   46 1
    30   15   20 ar
    31   15   16 ar
    32   16   17 ar
    33   16   47 1
    34   17   18 ar
    35   17   48 1
    36   18   25 1
    37   18   19 ar
    38   19   20 ar
    39   19   21 1
    40   20   49 1
    41   21   22 1
    42   21   50 1
    43   21   51 1
    44   22   23 1
    45   22   52 1
    46   22   53 1
    47   23   24 1
    48   23   26 1
    49   24   25 1
    50   24   54 1
    51   24   55 1
    52   25   56 1
    53   25   57 1
    54   26   27 1
    55   26   58 1
    56   26   59 1
    57   27   32 2
    58   27   28 1
    59   28   29 2
    60   28   60 1
    61   29   30 1
    62   29   61 1
    63   30   31 1
    64   30   32 1
@<TRIPOS>MOLECULE
CHEMBL1080046
   62    65     0     0     0
SMALL
USER_CHARGES

@<TRIPOS>ATOM
      1 C1        -15.6005   -4.4653   -4.8645 C.3       1 <0>        -0.1529
      2 C2        -14.7915   -5.6660   -4.3698 C.3       1 <0>        -0.1283
      3 C3        -13.5560   -5.1721   -3.6143 C.3       1 <0>        -0.1094
      4 C4        -12.7471   -6.3728   -3.1196 C.3       1 <0>        -0.0964
      5 C5        -11.5302   -5.8864   -2.3755 C.ar      1 <0>        -0.0164
      6 C6        -10.3491   -5.6580   -3.0565 C.ar      1 <0>        -0.1385
      7 C7         -9.2329   -5.2119   -2.3740 C.ar      1 <0>        -0.0137
      8 C8         -9.2978   -4.9937   -1.0106 C.ar      1 <0>        -0.6823
      9 C9        -10.4791   -5.2212   -0.3297 C.ar      1 <0>        -0.0141
     10 C10       -11.5966   -5.6633   -1.0129 C.ar      1 <0>        -0.1378
     11 S1         -7.8747   -4.4261   -0.1404 S.o2      1 <0>         2.6857
     12 O1         -7.9805   -4.9303    1.1839 O.2       1 <0>        -0.9432
     13 O2         -6.7549   -4.6981   -0.9719 O.2       1 <0>        -0.9443
     14 N1         -7.9931   -2.7780   -0.0302 N.pl3     1 <0>        -1.0685
     15 C11        -7.9877   -1.9984   -1.1891 C.ar      1 <0>         0.1418
     16 C12        -6.8013   -1.7893   -1.8811 C.ar      1 <0>        -0.0935
     17 C13        -6.7968   -1.0185   -3.0280 C.ar      1 <0>        -0.0919
     18 C14        -7.9774   -0.4578   -3.4813 C.ar      1 <0>        -0.0951
     19 C15        -9.1521   -0.6620   -2.7988 C.ar      1 <0>        -0.0986
     20 C16        -9.1704   -1.4356   -1.6546 C.ar      1 <0>        -0.0958
     21 C17       -10.4369   -0.0413   -3.3092 C.3       1 <0>        -0.0955
     22 C18       -10.3437    1.4760   -3.1198 C.3       1 <0>        -0.0092
     23 N2         -9.6680    2.1012   -4.2426 N.4       1 <0>        -0.3719
     24 C19        -8.2428    1.8413   -4.3401 C.3       1 <0>        -0.0169
     25 C20        -7.9748    0.3870   -4.7395 C.3       1 <0>        -0.0949
     26 C21        -9.8656    3.5538   -4.1479 C.3       1 <0>         0.0812
     27 C22        -9.2800    4.2208   -5.3658 C.2       1 <0>         0.0057
     28 C23        -9.9809    4.5768   -6.5227 C.2       1 <0>        -0.2557
     29 C24        -9.1050    5.1495   -7.3805 C.2       1 <0>         0.0840
     30 N3         -7.8928    5.1557   -6.7875 N.pl3     1 <0>        -0.4470
     31 H1         -7.0726    5.5058   -7.1691 H         1 <0>         0.4535
     32 N4         -8.0293    4.5721   -5.5213 N.2       1 <0>        -0.2627
     33 H2        -16.4807   -4.8171   -5.4027 H         1 <0>         0.0576
     34 H3        -15.9128   -3.8616   -4.0124 H         1 <0>         0.0533
     35 H4        -14.9843   -3.8617   -5.5310 H         1 <0>         0.0515
     36 H5        -15.4077   -6.2695   -3.7033 H         1 <0>         0.0653
     37 H6        -14.4791   -6.2696   -5.2219 H         1 <0>         0.0643
     38 H7        -12.9398   -4.5686   -4.2808 H         1 <0>         0.0619
     39 H8        -13.8684   -4.5685   -2.7622 H         1 <0>         0.0637
     40 H9        -13.3633   -6.9764   -2.4531 H         1 <0>         0.0816
     41 H10       -12.4347   -6.9765   -3.9717 H         1 <0>         0.0808
     42 H11       -10.2984   -5.8285   -4.1218 H         1 <0>         0.1326
     43 H12        -8.3099   -5.0341   -2.9060 H         1 <0>         0.1390
     44 H13       -10.5298   -5.0511    0.7356 H         1 <0>         0.1398
     45 H14       -12.5205   -5.8375   -0.4816 H         1 <0>         0.1348
     46 H15        -8.0663   -2.3541    0.8392 H         1 <0>         0.4298
     47 H16        -5.8825   -2.2296   -1.5229 H         1 <0>         0.1445
     48 H17        -5.8759   -0.8543   -3.5678 H         1 <0>         0.1392
     49 H18       -10.0963   -1.5984   -1.1230 H         1 <0>         0.1375
     50 H19       -10.5624   -0.2728   -4.3669 H         1 <0>         0.0979
     51 H20       -11.2835   -0.4310   -2.7439 H         1 <0>         0.1198
     52 H21       -11.3490    1.8882   -3.0327 H         1 <0>         0.1403
     53 H22        -9.7901    1.6891   -2.2053 H         1 <0>         0.1325
     54 H23        -7.8087    2.5039   -5.0889 H         1 <0>         0.1422
     55 H24        -7.7762    2.0391   -3.3750 H         1 <0>         0.1311
     56 H25        -7.0042    0.3134   -5.2299 H         1 <0>         0.1176
     57 H26        -8.7564    0.0413   -5.4161 H         1 <0>         0.0958
     58 H27       -10.9319    3.7725   -4.0913 H         1 <0>         0.1519
     59 H28        -9.3694    3.9305   -3.2535 H         1 <0>         0.1431
     60 H29       -11.0348    4.4215   -6.7002 H         1 <0>         0.1616
     61 H30        -9.3348    5.5327   -8.3637 H         1 <0>         0.1927
     62 H31       -10.1065    1.7818   -5.0933 H         1 <0>         0.4191
@<TRIPOS>BOND
     1    1    2 1
     2    1   33 1
     3    1   34 1
     4    1   35 1
     5    2    3 1
     6    2   36 1
     7    2   37 1
     8    3    4 1
     9    3   38 1
    10    3   39 1
    11    4    5 1
    12    4   40 1
    13    4   41 1
    14    5   10 ar
    15    5    6 ar
    16    6    7 ar
    17    6   42 1
    18    7    8 ar
    19    7   43 1
    20    8    9 ar
    21    8   11 1
    22    9   10 ar
    23    9   44 1
    24   10   45 1
    25   11   12 2
    26   11   13 2
    27   11   14 1
    28   14   15 1
    29   14   46 1
    30   15   20 ar
    31   15   16 ar
    32   16   17 ar
    33   16   47 1
    34   17   18 ar
    35   17   48 1
    36   18   25 1
    37   18   19 ar
    38   19   20 ar
    39   19   21 1
    40   20   49 1
    41   21   22 1
    42   21   50 1
    43   21   51 1
    44   22   23 1
    45   22   52 1
    46   22   53 1
    47   23   24 1
    48   23   26 1
    49   23   62 1
    50   24   25 1
    51   24   54 1
    52   24   55 1
    53   25   56 1
    54   25   57 1
    55   26   58 1
    56   26   59 1
    57   26   27 1
    58   27   32 2
    59   27   28 1
    60   28   60 1
    61   28   29 2
    62   29   61 1
    63   29   30 1
    64   30   32 1
    65   30   31 1
@<TRIPOS>MOLECULE
CHEMBL1080046
   62    65     0     0     0
SMALL
USER_CHARGES

@<TRIPOS>ATOM
      1 C1          3.6975   -4.3181   15.9632 C.3       1 <0>        -0.1529
      2 C2          3.7517   -5.5211   15.0194 C.3       1 <0>        -0.1285
      3 C3          3.7760   -5.0316   13.5700 C.3       1 <0>        -0.1092
      4 C4          3.8302   -6.2346   12.6263 C.3       1 <0>        -0.0967
      5 C5          3.8542   -5.7525   11.1987 C.ar      1 <0>        -0.0159
      6 C6          2.6686   -5.5561   10.5155 C.ar      1 <0>        -0.1385
      7 C7          2.6905   -5.1139    9.2060 C.ar      1 <0>        -0.0140
      8 C8          3.8980   -4.8675    8.5798 C.ar      1 <0>        -0.6828
      9 C9          5.0836   -5.0629    9.2633 C.ar      1 <0>        -0.0141
     10 C10         5.0615   -5.5011   10.5742 C.ar      1 <0>        -0.1377
     11 S1          3.9260   -4.3048    6.9103 S.o2      1 <0>         2.6854
     12 O1          5.1381   -4.7808    6.3416 O.2       1 <0>        -0.9424
     13 O2          2.6533   -4.6108    6.3572 O.2       1 <0>        -0.9440
     14 N1          4.0392   -2.6532    6.9520 N.pl3     1 <0>        -1.0692
     15 C11         3.0135   -1.8971    7.5240 C.ar      1 <0>         0.1441
     16 C12         1.8162   -1.7204    6.8418 C.ar      1 <0>        -0.0933
     17 C13         0.8017   -0.9729    7.4086 C.ar      1 <0>        -0.0913
     18 C14         0.9851   -0.4030    8.6556 C.ar      1 <0>        -0.0981
     19 C15         2.1681   -0.5752    9.3325 C.ar      1 <0>        -0.0985
     20 C16         3.1874   -1.3253    8.7790 C.ar      1 <0>        -0.0957
     21 C17         2.3527    0.0552   10.6982 C.3       1 <0>        -0.0961
     22 C18         2.4320    1.5743   10.5175 C.3       1 <0>        -0.0098
     23 N2          1.1065    2.1663   10.4914 N.4       1 <0>        -0.3744
     24 C19         0.3165    1.8824    9.3069 C.3       1 <0>        -0.0203
     25 C20        -0.1268    0.4163    9.2796 C.3       1 <0>        -0.0940
     26 C21         1.2508    3.6234   10.6102 C.3       1 <0>         0.0629
     27 C22        -0.1131    4.2567   10.7096 C.2       1 <0>         0.0003
     28 C23        -0.7584    4.5861   11.8525 C.2       1 <0>        -0.2056
     29 C24        -1.9911    5.1476   11.5041 C.2       1 <0>         0.0555
     30 N3         -2.0827    5.1551   10.1990 N.2       1 <0>        -0.2437
     31 H1         -0.7012    4.4866    8.7339 H         1 <0>         0.4427
     32 N4         -0.9071    4.6024    9.6747 N.pl3     1 <0>        -0.4683
     33 H2          2.7974   -3.7377   15.7606 H         1 <0>         0.0515
     34 H3          3.6802   -4.6668   16.9957 H         1 <0>         0.0578
     35 H4          4.5762   -3.6927   15.8056 H         1 <0>         0.0532
     36 H5          4.6518   -6.1015   15.2220 H         1 <0>         0.0654
     37 H6          2.8730   -6.1465   15.1770 H         1 <0>         0.0645
     38 H7          2.8759   -4.4512   13.3674 H         1 <0>         0.0617
     39 H8          4.6547   -4.4062   13.4124 H         1 <0>         0.0636
     40 H9          4.7303   -6.8150   12.8288 H         1 <0>         0.0819
     41 H10         2.9515   -6.8600   12.7839 H         1 <0>         0.0811
     42 H11         1.7252   -5.7486   11.0047 H         1 <0>         0.1328
     43 H12         1.7642   -4.9612    8.6720 H         1 <0>         0.1389
     44 H13         6.0270   -4.8707    8.7739 H         1 <0>         0.1399
     45 H14         5.9877   -5.6502   11.1093 H         1 <0>         0.1350
     46 H15         4.8178   -2.2109    6.5792 H         1 <0>         0.4301
     47 H16         1.6783   -2.1677    5.8685 H         1 <0>         0.1453
     48 H17        -0.1300   -0.8339    6.8803 H         1 <0>         0.1398
     49 H18         4.1144   -1.4631    9.3157 H         1 <0>         0.1380
     50 H19         1.5055   -0.1955   11.3365 H         1 <0>         0.0989
     51 H20         3.2750   -0.3100   11.1501 H         1 <0>         0.1210
     52 H21         2.9995    2.0037   11.3432 H         1 <0>         0.1420
     53 H22         2.9418    1.7970    9.5802 H         1 <0>         0.1326
     54 H23        -0.5654    2.5230    9.3030 H         1 <0>         0.1301
     55 H24         0.9139    2.0921    8.4196 H         1 <0>         0.1327
     56 H25        -1.0346    0.3178    8.6844 H         1 <0>         0.1200
     57 H26        -0.3133    0.0694   10.2959 H         1 <0>         0.0987
     58 H27         1.8272    3.8597   11.5046 H         1 <0>         0.1593
     59 H28         1.7678    4.0101    9.7320 H         1 <0>         0.1419
     60 H29        -0.3872    4.4408   12.8562 H         1 <0>         0.1641
     61 H30        -2.7386    5.5116   12.1935 H         1 <0>         0.1998
     62 H31         0.5972    1.8368   11.2977 H         1 <0>         0.4225
@<TRIPOS>BOND
     1    1    2 1
     2    1   33 1
     3    1   34 1
     4    1   35 1
     5    2    3 1
     6    2   36 1
     7    2   37 1
     8    3    4 1
     9    3   38 1
    10    3   39 1
    11    4    5 1
    12    4   40 1
    13    4   41 1
    14    5   10 ar
    15    5    6 ar
    16    6    7 ar
    17    6   42 1
    18    7    8 ar
    19    7   43 1
    20    8    9 ar
    21    8   11 1
    22    9   10 ar
    23    9   44 1
    24   10   45 1
    25   11   12 2
    26   11   13 2
    27   11   14 1
    28   14   15 1
    29   14   46 1
    30   15   20 ar
    31   15   16 ar
    32   16   17 ar
    33   16   47 1
    34   17   18 ar
    35   17   48 1
    36   18   25 1
    37   18   19 ar
    38   19   20 ar
    39   19   21 1
    40   20   49 1
    41   21   22 1
    42   21   50 1
    43   21   51 1
    44   22   23 1
    45   22   52 1
    46   22   53 1
    47   23   24 1
    48   23   26 1
    49   23   62 1
    50   24   25 1
    51   24   54 1
    52   24   55 1
    53   25   56 1
    54   25   57 1
    55   26   58 1
    56   26   59 1
    57   26   27 1
    58   27   28 2
    59   27   32 1
    60   28   29 1
    61   28   60 1
    62   29   30 2
    63   29   61 1
    64   30   32 1
    65   31   32 1
@<TRIPOS>MOLECULE
CHEMBL1080046
   61    64     0     0     0
SMALL
USER_CHARGES

@<TRIPOS>ATOM
      1 C1         12.0896   -4.0526  -11.1518 C.3       1 <0>        -0.1540
      2 C2         11.2752   -5.2752  -10.7242 C.3       1 <0>        -0.1256
      3 C3          9.9947   -4.8156  -10.0240 C.3       1 <0>        -0.1131
      4 C4          9.1803   -6.0382   -9.5964 C.3       1 <0>        -0.0926
      5 C5          7.9191   -5.5856   -8.9068 C.ar      1 <0>        -0.0198
      6 C6          7.9132   -5.3848   -7.5391 C.ar      1 <0>        -0.1375
      7 C7          6.7563   -4.9695   -6.9066 C.ar      1 <0>        -0.0104
      8 C8          5.6055   -4.7546   -7.6417 C.ar      1 <0>        -0.6794
      9 C9          5.6118   -4.9546   -9.0095 C.ar      1 <0>        -0.0153
     10 C10         6.7698   -5.3657   -9.6427 C.ar      1 <0>        -0.1395
     11 S1          4.1307   -4.2265   -6.8353 S.o2      1 <0>         2.6881
     12 O1          3.0457   -4.7326   -7.6007 O.2       1 <0>        -0.9536
     13 O2          4.2935   -4.5238   -5.4553 O.2       1 <0>        -0.9477
     14 N1          4.0686   -2.5763   -6.9597 N.pl3     1 <0>        -1.0628
     15 C11         5.0574   -1.7931   -6.3601 C.ar      1 <0>         0.1193
     16 C12         5.0607   -1.6114   -4.9827 C.ar      1 <0>        -0.1048
     17 C13         6.0398   -0.8369   -4.3904 C.ar      1 <0>        -0.1066
     18 C14         7.0140   -0.2452   -5.1745 C.ar      1 <0>        -0.0718
     19 C15         7.0135   -0.4228   -6.5368 C.ar      1 <0>        -0.0766
     20 C16         6.0427   -1.1991   -7.1399 C.ar      1 <0>        -0.1044
     21 C17         8.0869    0.2304   -7.3829 C.3       1 <0>        -0.0782
     22 C18         7.8512    1.7440   -7.3748 C.3       1 <0>         0.0786
     23 N2          8.4631    2.3569   -6.2071 N.3       1 <0>        -0.5598
     24 C19         7.8523    2.0638   -4.9208 C.3       1 <0>         0.0692
     25 C20         8.0880    0.6033   -4.5252 C.3       1 <0>        -0.0788
     26 C21         8.6238    3.8048   -6.3958 C.3       1 <0>         0.1255
     27 C22         9.4743    4.3649   -5.2850 C.2       1 <0>         0.0895
     28 C23        10.8108    4.5716   -5.3303 C.2       1 <0>        -0.2487
     29 C24        11.2062    5.1020   -4.0979 C.2       1 <0>         0.0495
     30 N3         10.1452    5.2099   -3.3400 N.2       1 <0>        -0.2905
     31 H1          8.1215    4.7252   -3.7545 H         1 <0>         0.4345
     32 N4          9.0386    4.7555   -4.0690 N.pl3     1 <0>        -0.4775
     33 H2         11.4991   -3.4443  -11.8370 H         1 <0>         0.0539
     34 H3         12.3480   -3.4625  -10.2726 H         1 <0>         0.0545
     35 H4         13.0018   -4.3801  -11.6506 H         1 <0>         0.0553
     36 H5         11.0167   -5.8653  -11.6034 H         1 <0>         0.0625
     37 H6         11.8656   -5.8836  -10.0390 H         1 <0>         0.0628
     38 H7         10.2532   -4.2256   -9.1448 H         1 <0>         0.0655
     39 H8          9.4043   -4.2073  -10.7092 H         1 <0>         0.0647
     40 H9          8.9219   -6.6283  -10.4757 H         1 <0>         0.0787
     41 H10         9.7708   -6.6466   -8.9112 H         1 <0>         0.0789
     42 H11         8.8122   -5.5527   -6.9647 H         1 <0>         0.1324
     43 H12         6.7514   -4.8133   -5.8379 H         1 <0>         0.1398
     44 H13         4.7126   -4.7870   -9.5839 H         1 <0>         0.1380
     45 H14         6.7757   -5.5183  -10.7118 H         1 <0>         0.1325
     46 H15         3.3455   -2.1537   -7.4491 H         1 <0>         0.4251
     47 H16         4.2978   -2.0752   -4.3750 H         1 <0>         0.1349
     48 H17         6.0442   -0.6938   -3.3199 H         1 <0>         0.1307
     49 H18         6.0473   -1.3404   -8.2106 H         1 <0>         0.1285
     50 H19         9.0691    0.0092   -6.9653 H         1 <0>         0.0907
     51 H20         8.0284   -0.1451   -8.4046 H         1 <0>         0.0798
     52 H21         8.2835    2.1790   -8.2759 H         1 <0>         0.0825
     53 H22         6.7790    1.9398   -7.3620 H         1 <0>         0.0363
     54 H23         8.2852    2.7152   -4.1617 H         1 <0>         0.0772
     55 H24         6.7800    2.2497   -4.9825 H         1 <0>         0.0350
     56 H25         8.0306    0.5026   -3.4414 H         1 <0>         0.0794
     57 H26         9.0699    0.2826   -4.8731 H         1 <0>         0.0906
     58 H27         9.1067    3.9949   -7.3544 H         1 <0>         0.1047
     59 H28         7.6449    4.2840   -6.3808 H         1 <0>         0.0466
     60 H29        11.4579    4.3634   -6.1695 H         1 <0>         0.1487
     61 H30        12.2135    5.3748   -3.8198 H         1 <0>         0.1844
@<TRIPOS>BOND
     1    1    2 1
     2    1   33 1
     3    1   34 1
     4    1   35 1
     5    2    3 1
     6    2   36 1
     7    2   37 1
     8    3    4 1
     9    3   38 1
    10    3   39 1
    11    4    5 1
    12    4   40 1
    13    4   41 1
    14    5   10 ar
    15    5    6 ar
    16    6    7 ar
    17    6   42 1
    18    7    8 ar
    19    7   43 1
    20    8    9 ar
    21    8   11 1
    22    9   10 ar
    23    9   44 1
    24   10   45 1
    25   11   12 2
    26   11   13 2
    27   11   14 1
    28   14   15 1
    29   14   46 1
    30   15   20 ar
    31   15   16 ar
    32   16   17 ar
    33   16   47 1
    34   17   18 ar
    35   17   48 1
    36   18   25 1
    37   18   19 ar
    38   19   20 ar
    39   19   21 1
    40   20   49 1
    41   21   22 1
    42   21   50 1
    43   21   51 1
    44   22   23 1
    45   22   52 1
    46   22   53 1
    47   23   24 1
    48   23   26 1
    49   24   25 1
    50   24   54 1
    51   24   55 1
    52   25   56 1
    53   25   57 1
    54   26   58 1
    55   26   59 1
    56   26   27 1
    57   27   28 2
    58   27   32 1
    59   28   29 1
    60   28   60 1
    61   29   30 2
    62   29   61 1
    63   30   32 1
    64   31   32 1
@<TRIPOS>MOLECULE
CHEMBL407708
   62    66     0     0     0
SMALL
USER_CHARGES

@<TRIPOS>ATOM
      1 C1         -0.6422    1.7717   -0.1531 C.3       1 <0>        -0.1575
      2 C2         -0.2411    0.2952   -0.1601 C.3       1 <0>        -0.0212
      3 C3          0.7229    0.0231    0.9965 C.3       1 <0>        -0.1566
      4 C4         -1.4715   -0.5603   -0.0004 C.2       1 <0>        -0.0186
      5 C5         -2.3712   -0.5421    1.0824 C.2       1 <0>        -0.0802
      6 C6         -3.3505   -1.4828    0.8197 C.2       1 <0>         0.1095
      7 N1         -3.0855   -2.0641   -0.3632 N.pl3     1 <0>        -0.2300
      8 C7         -1.9351   -1.5066   -0.8892 C.2       1 <0>        -0.1086
      9 C8         -1.4723   -1.9713   -2.1441 C.2       1 <0>         0.5376
     10 N2         -2.1516   -2.9160   -2.7731 N.2       1 <0>        -0.6216
     11 C9         -3.2605   -3.4409   -2.2549 C.2       1 <0>         0.3338
     12 N3         -3.7367   -3.0644   -1.1002 N.2       1 <0>        -0.3429
     13 N4         -0.3260   -1.4443   -2.7048 N.pl3     1 <0>        -0.6156
     14 C10         0.0516   -1.8116   -4.0025 C.ar      1 <0>         0.0989
     15 C11        -0.8875   -2.3354   -4.8736 C.ar      1 <0>        -0.0408
     16 C12        -0.5076   -2.7003   -6.1673 C.ar      1 <0>        -0.1641
     17 C13         0.8205   -2.5339   -6.5744 C.ar      1 <0>         0.1801
     18 C14         1.7507   -2.0099   -5.6967 C.ar      1 <0>        -0.1769
     19 C15         1.3709   -1.6441   -4.4172 C.ar      1 <0>         0.1322
     20 F1          2.2837   -1.1273   -3.5658 F         1 <0>        -0.1200
     21 F2          1.1935   -2.8855   -7.8244 F         1 <0>        -0.1018
     22 C16        -1.5037   -3.2599   -7.1014 C.2       1 <0>         0.5679
     23 O1         -1.1708   -3.5768   -8.2270 O.2       1 <0>        -0.5153
     24 N5         -2.7825   -3.4196   -6.7067 N.am      1 <0>        -0.6951
     25 C17        -3.7713   -3.9751   -7.6340 C.3       1 <0>         0.0781
     26 C18        -5.1428   -3.2994   -7.6923 C.3       1 <0>        -0.1921
     27 C19        -4.9931   -4.6707   -7.0304 C.3       1 <0>        -0.1861
     28 C20        -2.2852    0.3224    2.2785 C.2       1 <0>         0.2151
     29 N6         -1.3602    1.2175    2.5241 N.2       1 <0>        -0.2371
     30 N7         -1.6002    1.7810    3.6555 N.2       1 <0>        -0.3417
     31 C21        -2.6880    1.2679    4.1770 C.2       1 <0>         0.4288
     32 O2         -3.1490    0.3393    3.3172 O.3       1 <0>        -0.2443
     33 N8         -3.2600    1.6192    5.3856 N.pl3     1 <0>        -0.6736
     34 C22        -2.6428    2.6582    6.2136 C.3       1 <0>         0.1596
     35 C23        -3.1278    4.0337    5.7514 C.3       1 <0>        -0.1700
     36 C24        -3.0352    2.4443    7.6768 C.3       1 <0>        -0.1634
     37 H1          0.2477    2.3904   -0.2686 H         1 <0>         0.0645
     38 H2         -1.3289    1.9655   -0.9771 H         1 <0>         0.0476
     39 H3         -1.1310    2.0110    0.7913 H         1 <0>         0.0932
     40 H4          0.2477    0.0559   -1.1045 H         1 <0>         0.0575
     41 H5          0.2340    0.2624    1.9409 H         1 <0>         0.0908
     42 H6          1.0086   -1.0288    0.9915 H         1 <0>         0.0482
     43 H7          1.6127    0.6419    0.8810 H         1 <0>         0.0651
     44 H8         -4.1894   -1.7129    1.4597 H         1 <0>         0.1924
     45 H9         -3.7802   -4.2099   -2.8071 H         1 <0>         0.2247
     46 H10         0.2179   -0.8197   -2.1999 H         1 <0>         0.4304
     47 H11        -1.9113   -2.4620   -4.5540 H         1 <0>         0.1831
     48 H12         2.7759   -1.8820   -6.0114 H         1 <0>         0.1657
     49 H13        -3.0481   -3.1668   -5.8087 H         1 <0>         0.4021
     50 H14        -3.3694   -4.3800   -8.5628 H         1 <0>         0.1416
     51 H15        -5.3093   -2.4416   -7.0408 H         1 <0>         0.0970
     52 H16        -5.6434   -3.2595   -8.6597 H         1 <0>         0.1050
     53 H17        -5.3953   -5.5329   -7.5624 H         1 <0>         0.1064
     54 H18        -5.0612   -4.7150   -5.9434 H         1 <0>         0.0981
     55 H19        -4.0701    1.1777    5.6853 H         1 <0>         0.4158
     56 H20        -1.5585    2.6038    6.1165 H         1 <0>         0.0958
     57 H21        -2.6685    4.8068    6.3674 H         1 <0>         0.0734
     58 H22        -2.8482    4.1861    4.7089 H         1 <0>         0.0638
     59 H23        -4.2121    4.0882    5.8485 H         1 <0>         0.0588
     60 H24        -2.6897    1.4644    8.0061 H         1 <0>         0.0654
     61 H25        -2.5759    3.2174    8.2929 H         1 <0>         0.0826
     62 H26        -4.1195    2.4988    7.7739 H         1 <0>         0.0646
@<TRIPOS>BOND
     1    1    2 1
     2    1   37 1
     3    1   38 1
     4    1   39 1
     5    2    3 1
     6    2    4 1
     7    2   40 1
     8    3   41 1
     9    3   42 1
    10    3   43 1
    11    4    8 2
    12    4    5 1
    13    5    6 2
    14    5   28 1
    15    6    7 1
    16    6   44 1
    17    7   12 1
    18    7    8 1
    19    8    9 1
    20    9   10 2
    21    9   13 1
    22   10   11 1
    23   11   12 2
    24   11   45 1
    25   13   14 1
    26   13   46 1
    27   14   19 ar
    28   14   15 ar
    29   15   16 ar
    30   15   47 1
    31   16   17 ar
    32   16   22 1
    33   17   18 ar
    34   17   21 1
    35   18   19 ar
    36   18   48 1
    37   19   20 1
    38   22   23 2
    39   22   24 am
    40   24   25 1
    41   24   49 1
    42   25   27 1
    43   25   26 1
    44   25   50 1
    45   26   27 1
    46   26   51 1
    47   26   52 1
    48   27   53 1
    49   27   54 1
    50   28   32 1
    51   28   29 2
    52   29   30 1
    53   30   31 2
    54   31   32 1
    55   31   33 1
    56   33   34 1
    57   33   55 1
    58   34   35 1
    59   34   36 1
    60   34   56 1
    61   35   57 1
    62   35   58 1
    63   35   59 1
    64   36   60 1
    65   36   61 1
    66   36   62 1
@<TRIPOS>MOLECULE
CHEMBL1209674
   52    56     0     0     0
SMALL
USER_CHARGES

@<TRIPOS>ATOM
      1 C1         -0.2377    1.5010   -0.1013 C.3       1 <0>        -0.1758
      2 C2          0.0024   -0.0064    0.0031 C.3       1 <0>         0.1173
      3 H1         -0.9537   -0.5206    0.1015 H         1 <0>         0.0891
      4 C3          0.8555   -0.2968    1.2109 C.ar      1 <0>        -0.0850
      5 C4          2.2262   -0.4160    1.0766 C.ar      1 <0>        -0.0764
      6 C5          3.0088   -0.6823    2.1844 C.ar      1 <0>        -0.1132
      7 C6          2.4214   -0.8295    3.4273 C.ar      1 <0>        -0.1008
      8 C7          1.0513   -0.7105    3.5628 C.ar      1 <0>        -0.1105
      9 C8          0.2678   -0.4383    2.4552 C.ar      1 <0>        -0.0267
     10 Cl1        -1.4527   -0.2821    2.6257 Cl        1 <0>        -0.0674
     11 O1          0.6709   -0.4649   -1.1737 O.3       1 <0>        -0.2589
     12 C9         -0.1062   -0.7743   -2.2432 C.2       1 <0>         0.1997
     13 C10        -1.4598   -0.5442   -2.2209 C.2       1 <0>        -0.2310
     14 C11        -2.2097   -0.8692   -3.3189 C.2       1 <0>         0.1114
     15 S1         -0.9850   -1.5257   -4.4391 S.3       1 <0>         0.1508
     16 C12         0.4497   -1.3286   -3.3949 C.2       1 <0>        -0.2744
     17 C13         1.7984   -1.6521   -3.6653 C.2       1 <0>         0.6120
     18 O2          2.6546   -1.4473   -2.8232 O.2       1 <0>        -0.5163
     19 N1          2.1376   -2.1872   -4.8549 N.am      1 <0>        -0.8529
     20 N2         -3.5804   -0.7250   -3.5125 N.pl3     1 <0>        -0.4134
     21 C14        -4.5649   -1.1326   -2.6609 C.2       1 <0>         0.2814
     22 N3         -5.7320   -0.8396   -3.1546 N.2       1 <0>        -0.4678
     23 C15        -5.5796   -0.2241   -4.3563 C.ar      1 <0>         0.0554
     24 C16        -4.1974   -0.1365   -4.6012 C.ar      1 <0>         0.0537
     25 C17        -3.7322    0.4572   -5.7669 C.ar      1 <0>        -0.1018
     26 C18        -4.6156    0.9617   -6.6791 C.ar      1 <0>        -0.0762
     27 C19        -5.9926    0.8859   -6.4494 C.ar      1 <0>        -0.0551
     28 C20        -6.4770    0.2889   -5.2930 C.ar      1 <0>        -0.0391
     29 C21        -6.9399    1.4387   -7.4482 C.ar      1 <0>         0.0044
     30 C22        -8.3206    1.3797   -7.2377 C.ar      1 <0>        -0.1666
     31 C23        -9.1662    1.9064   -8.1921 C.ar      1 <0>         0.1056
     32 N4         -8.6873    2.4593   -9.2901 N.ar      1 <0>        -0.4869
     33 C24        -7.3916    2.5352   -9.5271 C.ar      1 <0>         0.1045
     34 C25        -6.4760    2.0381   -8.6227 C.ar      1 <0>        -0.1663
     35 H2          0.7184    2.0152   -0.1997 H         1 <0>         0.0764
     36 H3         -0.8548    1.7110   -0.9749 H         1 <0>         0.0679
     37 H4         -0.7476    1.8508    0.7963 H         1 <0>         0.0809
     38 H5          2.6855   -0.3015    0.1059 H         1 <0>         0.1455
     39 H6          4.0796   -0.7757    2.0789 H         1 <0>         0.1335
     40 H7          3.0334   -1.0379    4.2924 H         1 <0>         0.1351
     41 H8          0.5925   -0.8259    4.5337 H         1 <0>         0.1374
     42 H9         -1.9268   -0.1126   -1.3480 H         1 <0>         0.1601
     43 H10         1.4559   -2.3503   -5.5254 H         1 <0>         0.3974
     44 H11         3.0634   -2.4093   -5.0405 H         1 <0>         0.4104
     45 H12        -4.3994   -1.6269   -1.7151 H         1 <0>         0.2236
     46 H13        -2.6703    0.5206   -5.9528 H         1 <0>         0.1309
     47 H14        -4.2475    1.4226   -7.5838 H         1 <0>         0.1411
     48 H15        -7.5408    0.2314   -5.1153 H         1 <0>         0.1417
     49 H16        -8.7194    0.9282   -6.3413 H         1 <0>         0.1388
     50 H17       -10.2344    1.8652   -8.0385 H         1 <0>         0.1591
     51 H18        -7.0430    2.9964  -10.4393 H         1 <0>         0.1588
     52 H19        -5.4167    2.1077   -8.8210 H         1 <0>         0.1385
@<TRIPOS>BOND
     1    1    2 1
     2    1   35 1
     3    1   36 1
     4    1   37 1
     5    2    3 1
     6    2    4 1
     7    2   11 1
     8    4    9 ar
     9    4    5 ar
    10    5    6 ar
    11    5   38 1
    12    6    7 ar
    13    6   39 1
    14    7    8 ar
    15    7   40 1
    16    8    9 ar
    17    8   41 1
    18    9   10 1
    19   11   12 1
    20   12   16 2
    21   12   13 1
    22   13   14 2
    23   13   42 1
    24   14   15 1
    25   14   20 1
    26   15   16 1
    27   16   17 1
    28   17   18 2
    29   17   19 am
    30   19   43 1
    31   19   44 1
    32   20   24 1
    33   20   21 1
    34   21   22 2
    35   21   45 1
    36   22   23 1
    37   23   28 ar
    38   23   24 ar
    39   24   25 ar
    40   25   26 ar
    41   25   46 1
    42   26   27 ar
    43   26   47 1
    44   27   28 ar
    45   27   29 1
    46   28   48 1
    47   29   34 ar
    48   29   30 ar
    49   30   31 ar
    50   30   49 1
    51   31   32 ar
    52   31   50 1
    53   32   33 ar
    54   33   34 ar
    55   33   51 1
    56   34   52 1
@<TRIPOS>MOLECULE
CHEMBL252404
   74    78     0     0     0
SMALL
USER_CHARGES

@<TRIPOS>ATOM
      1 C1          1.1571   -0.8602    2.5939 C.3       1 <0>        -0.1748
      2 C2          1.2861   -2.2779    2.0333 C.3       1 <0>         0.0538
      3 C3          2.4127   -3.0137    2.7616 C.3       1 <0>        -0.1745
      4 C4         -0.0306   -3.0296    2.2393 C.3       1 <0>         0.0687
      5 O1         -0.3285   -3.0946    3.6354 O.3       1 <0>        -0.5511
      6 N1          1.5924   -2.2111    0.5982 N.4       1 <0>        -0.3764
      7 C5          1.7163   -3.5723    0.0600 C.3       1 <0>        -0.0676
      8 C6          2.8565   -1.4894    0.4004 C.3       1 <0>         0.0868
      9 C7          3.1090   -1.3135   -1.0748 C.2       1 <0>         0.1821
     10 N2          3.7718   -2.1716   -1.8583 N.2       1 <0>        -0.4902
     11 C8          3.8121   -1.7215   -3.0816 C.2       1 <0>         0.3513
     12 O2          3.1687   -0.5478   -3.1180 O.3       1 <0>        -0.0801
     13 N3          2.7128   -0.3041   -1.7956 N.2       1 <0>        -0.3112
     14 C9          4.4698   -2.4047   -4.2528 C.3       1 <0>         0.0275
     15 C10         3.4576   -3.3219   -4.9423 C.3       1 <0>        -0.1269
     16 C11         2.1743   -3.6574   -4.1798 C.3       1 <0>        -0.1219
     17 C12         2.1264   -2.7050   -5.3763 C.3       1 <0>        -0.1732
     18 C13         4.0554   -4.4118   -5.8344 C.3       1 <0>         0.1990
     19 H1          3.2538   -4.9524   -6.3376 H         1 <0>         0.0904
     20 C14         4.9778   -3.7731   -6.8775 C.3       1 <0>        -0.1296
     21 C15         5.6792   -4.8748   -7.6752 C.3       1 <0>        -0.1206
     22 C16         6.5328   -5.7254   -6.7318 C.3       1 <0>        -0.1341
     23 C17         5.6280   -6.3862   -5.6871 C.3       1 <0>         0.1915
     24 H2          4.9561   -7.0900   -6.1783 H         1 <0>         0.0830
     25 N4          4.8394   -5.3449   -5.0138 N.pl3     1 <0>        -0.9869
     26 S1          4.8377   -5.2224   -3.3623 S.o2      1 <0>         2.6732
     27 O3          6.1970   -5.2668   -2.9504 O.2       1 <0>        -0.9443
     28 O4          3.9779   -4.1391   -3.0362 O.2       1 <0>        -0.9320
     29 C18         4.0729   -6.6795   -2.7326 C.ar      1 <0>        -0.6749
     30 C19         2.7031   -6.8379   -2.8296 C.ar      1 <0>        -0.0130
     31 C20         2.1025   -7.9807   -2.3358 C.ar      1 <0>        -0.1329
     32 C21         2.8727   -8.9661   -1.7444 C.ar      1 <0>         0.0177
     33 C22         4.2436   -8.8071   -1.6476 C.ar      1 <0>        -0.1260
     34 C23         4.8436   -7.6664   -2.1468 C.ar      1 <0>        -0.0146
     35 Cl1         2.1191  -10.4015   -1.1235 Cl        1 <0>        -0.0445
     36 C24         6.4865   -7.1280   -4.6607 C.3       1 <0>        -0.2143
     37 C25         7.9985   -6.8981   -4.7061 C.3       1 <0>        -0.1511
     38 C26         7.4127   -8.2301   -5.1788 C.3       1 <0>        -0.1654
     39 H3          2.0951   -0.3247    2.4471 H         1 <0>         0.0824
     40 H4          0.3544   -0.3360    2.0751 H         1 <0>         0.0820
     41 H5          0.9298   -0.9098    3.6587 H         1 <0>         0.1177
     42 H6          2.1854   -3.0633    3.8265 H         1 <0>         0.1162
     43 H7          2.5046   -4.0237    2.3622 H         1 <0>         0.0834
     44 H8          3.3507   -2.4782    2.6148 H         1 <0>         0.0828
     45 H9         -0.8332   -2.5054    1.7205 H         1 <0>         0.0686
     46 H10         0.0614   -4.0396    1.8400 H         1 <0>         0.0708
     47 H11        -1.1518   -3.5586    3.8407 H         1 <0>         0.4057
     48 H12         2.5189   -4.0965    0.5788 H         1 <0>         0.1335
     49 H13         0.7783   -4.1078    0.2068 H         1 <0>         0.1264
     50 H14         1.9436   -3.5227   -1.0049 H         1 <0>         0.1364
     51 H15         2.7951   -0.5114    0.8777 H         1 <0>         0.1606
     52 H16         3.6734   -2.0593    0.8434 H         1 <0>         0.1663
     53 H17         4.8212   -1.6542   -4.9608 H         1 <0>         0.1002
     54 H18         5.3150   -2.9961   -3.9008 H         1 <0>         0.0937
     55 H19         1.7557   -4.6549   -4.3135 H         1 <0>         0.0935
     56 H20         2.0511   -3.2248   -3.1870 H         1 <0>         0.0958
     57 H21         1.9717   -1.6459   -5.1706 H         1 <0>         0.0999
     58 H22         1.6763   -3.0760   -6.2971 H         1 <0>         0.1075
     59 H23         4.3886   -3.1534   -7.5534 H         1 <0>         0.0844
     60 H24         5.7234   -3.1568   -6.3751 H         1 <0>         0.0718
     61 H25         4.9323   -5.5056   -8.1573 H         1 <0>         0.0673
     62 H26         6.3175   -4.4231   -8.4345 H         1 <0>         0.0739
     63 H27         7.0503   -6.4954   -7.3041 H         1 <0>         0.0801
     64 H28         7.2637   -5.0908   -6.2308 H         1 <0>         0.0795
     65 H29         2.1019   -6.0684   -3.2910 H         1 <0>         0.1423
     66 H30         1.0323   -8.1041   -2.4113 H         1 <0>         0.1434
     67 H31         4.8453   -9.5759   -1.1858 H         1 <0>         0.1469
     68 H32         5.9143   -7.5442   -2.0756 H         1 <0>         0.1543
     69 H33         6.0285   -7.2741   -3.6824 H         1 <0>         0.1105
     70 H34         8.3815   -6.2184   -5.4673 H         1 <0>         0.1049
     71 H35         8.5355   -6.8927   -3.7576 H         1 <0>         0.0996
     72 H36         7.5643   -9.1011   -4.5412 H         1 <0>         0.0988
     73 H37         7.4104   -8.4268   -6.2509 H         1 <0>         0.1006
     74 H38         0.8494   -1.7259    0.1179 H         1 <0>         0.4251
@<TRIPOS>BOND
     1    1    2 1
     2    1   39 1
     3    1   40 1
     4    1   41 1
     5    2    3 1
     6    2    4 1
     7    2    6 1
     8    3   42 1
     9    3   43 1
    10    3   44 1
    11    4    5 1
    12    4   45 1
    13    4   46 1
    14    5   47 1
    15    6    7 1
    16    6    8 1
    17    6   74 1
    18    7   48 1
    19    7   49 1
    20    7   50 1
    21    8    9 1
    22    8   51 1
    23    8   52 1
    24    9   13 2
    25    9   10 1
    26   10   11 2
    27   11   12 1
    28   11   14 1
    29   12   13 1
    30   14   15 1
    31   14   53 1
    32   14   54 1
    33   15   17 1
    34   15   16 1
    35   15   18 1
    36   16   17 1
    37   16   55 1
    38   16   56 1
    39   17   57 1
    40   17   58 1
    41   18   19 1
    42   18   25 1
    43   18   20 1
    44   20   21 1
    45   20   59 1
    46   20   60 1
    47   21   22 1
    48   21   61 1
    49   21   62 1
    50   22   23 1
    51   22   63 1
    52   22   64 1
    53   23   24 1
    54   23   25 1
    55   23   36 1
    56   25   26 1
    57   26   27 2
    58   26   28 2
    59   26   29 1
    60   29   34 ar
    61   29   30 ar
    62   30   31 ar
    63   30   65 1
    64   31   32 ar
    65   31   66 1
    66   32   33 ar
    67   32   35 1
    68   33   34 ar
    69   33   67 1
    70   34   68 1
    71   36   38 1
    72   36   37 1
    73   36   69 1
    74   37   38 1
    75   37   70 1
    76   37   71 1
    77   38   72 1
    78   38   73 1
@<TRIPOS>MOLECULE
CHEMBL252200
   67    71     0     0     0
SMALL
USER_CHARGES

@<TRIPOS>ATOM
      1 C1         -0.9845   -1.6489   -0.3884 C.3       1 <0>        -0.1437
      2 C2          0.4205   -1.1423   -0.0563 C.3       1 <0>        -0.2051
      3 C3          1.3391   -1.3605   -1.2602 C.3       1 <0>         0.1596
      4 H1          0.8882   -0.9185   -2.1487 H         1 <0>         0.0877
      5 C4          1.5466   -2.8620   -1.4824 C.3       1 <0>        -0.1311
      6 C5          2.5738   -3.0714   -2.5974 C.3       1 <0>        -0.1203
      7 C6          3.9119   -2.4550   -2.1830 C.3       1 <0>        -0.1315
      8 C7          3.7311   -0.9489   -1.9688 C.3       1 <0>         0.1997
      9 H2          3.4776   -0.4729   -2.9160 H         1 <0>         0.0951
     10 N1          2.6428   -0.7327   -1.0053 N.pl3     1 <0>        -0.9889
     11 S1          2.8820    0.1969    0.3442 S.o2      1 <0>         2.6746
     12 O1          4.2844    0.3968    0.4562 O.2       1 <0>        -0.9281
     13 O2          1.9628    1.2774    0.2613 O.2       1 <0>        -0.9537
     14 C8          2.3984   -0.7701    1.7354 C.ar      1 <0>        -0.6805
     15 C9          1.1703   -0.5556    2.3327 C.ar      1 <0>         0.0008
     16 C10         0.7904   -1.3138    3.4240 C.ar      1 <0>        -0.1351
     17 C11         1.6394   -2.2877    3.9187 C.ar      1 <0>         0.0218
     18 C12         2.8684   -2.5020    3.3205 C.ar      1 <0>        -0.1365
     19 C13         3.2449   -1.7469    2.2257 C.ar      1 <0>        -0.0067
     20 Cl1         1.1632   -3.2401    5.2898 Cl        1 <0>        -0.0460
     21 C14         5.0291   -0.3489   -1.4245 C.3       1 <0>        -0.1343
     22 C15         5.9004    0.4493   -2.3963 C.3       1 <0>        -0.1793
     23 C16         5.1082    1.1745   -1.3067 C.3       1 <0>        -0.1240
     24 C17         5.7414   -1.1781   -0.3540 C.3       1 <0>         0.0139
     25 C18         6.9189   -0.4040    0.1801 C.2       1 <0>         0.3422
     26 N2          6.8990    0.4124    1.1969 N.2       1 <0>        -0.5044
     27 C19         8.1175    0.9275    1.3961 C.2       1 <0>         0.1836
     28 N3          8.9316    0.4422    0.5033 N.2       1 <0>        -0.3105
     29 O3          8.1667   -0.4405   -0.3040 O.3       1 <0>        -0.0795
     30 C20         8.4874    1.9099    2.4773 C.3       1 <0>         0.0982
     31 N4          8.9128    1.1789    3.6784 N.4       1 <0>        -0.3942
     32 C21        10.2063    0.4928    3.4292 C.3       1 <0>        -0.0097
     33 C22        10.7733    0.2763    4.8548 C.3       1 <0>        -0.1425
     34 C23        10.3537    1.5680    5.5934 C.3       1 <0>        -0.1436
     35 C24         9.1647    2.1238    4.7880 C.3       1 <0>        -0.0068
     36 H3         -1.4087   -1.0443   -1.1900 H         1 <0>         0.0634
     37 H4         -0.9294   -2.6894   -0.7084 H         1 <0>         0.0635
     38 H5         -1.6164   -1.5739    0.4966 H         1 <0>         0.0638
     39 H6          0.3770   -0.0791    0.1796 H         1 <0>         0.0919
     40 H7          0.8104   -1.6893    0.8021 H         1 <0>         0.0914
     41 H8          1.9103   -3.3191   -0.5622 H         1 <0>         0.0675
     42 H9          0.6005   -3.3216   -1.7683 H         1 <0>         0.0814
     43 H10         2.7051   -4.1389   -2.7744 H         1 <0>         0.0719
     44 H11         2.2209   -2.5928   -3.5109 H         1 <0>         0.0692
     45 H12         4.2533   -2.9159   -1.2562 H         1 <0>         0.0694
     46 H13         4.6492   -2.6249   -2.9676 H         1 <0>         0.0836
     47 H14         0.5077    0.2049    1.9467 H         1 <0>         0.1543
     48 H15        -0.1690   -1.1459    3.8908 H         1 <0>         0.1475
     49 H16         3.5318   -3.2619    3.7064 H         1 <0>         0.1424
     50 H17         4.2022   -1.9173    1.7558 H         1 <0>         0.1385
     51 H18         6.9815    0.3837   -2.2733 H         1 <0>         0.0945
     52 H19         5.5490    0.5470   -3.4235 H         1 <0>         0.1076
     53 H20         4.2355    1.7493   -1.6170 H         1 <0>         0.0918
     54 H21         5.6680    1.5860   -0.4668 H         1 <0>         0.1139
     55 H22         5.0487   -1.3932    0.4596 H         1 <0>         0.1194
     56 H23         6.0898   -2.1137   -0.7914 H         1 <0>         0.1020
     57 H24         9.3036    2.5430    2.1292 H         1 <0>         0.1569
     58 H25         7.6232    2.5297    2.7162 H         1 <0>         0.1655
     59 H26        10.0451   -0.4627    2.9301 H         1 <0>         0.1297
     60 H27        10.8714    1.1269    2.8429 H         1 <0>         0.1386
     61 H28        10.3209   -0.5989    5.3210 H         1 <0>         0.0984
     62 H29        11.8589    0.1826    4.8280 H         1 <0>         0.1195
     63 H30        10.0452    1.3374    6.6131 H         1 <0>         0.1078
     64 H31        11.1751    2.2845    5.5988 H         1 <0>         0.1070
     65 H32         9.4137    3.1071    4.3890 H         1 <0>         0.1359
     66 H33         8.2833    2.1912    5.4257 H         1 <0>         0.1382
     67 H34         8.2080    0.5082    3.9458 H         1 <0>         0.4324
@<TRIPOS>BOND
     1    1    2 1
     2    1   36 1
     3    1   37 1
     4    1   38 1
     5    2    3 1
     6    2   39 1
     7    2   40 1
     8    3    4 1
     9    3   10 1
    10    3    5 1
    11    5    6 1
    12    5   41 1
    13    5   42 1
    14    6    7 1
    15    6   43 1
    16    6   44 1
    17    7    8 1
    18    7   45 1
    19    7   46 1
    20    8    9 1
    21    8   10 1
    22    8   21 1
    23   10   11 1
    24   11   12 2
    25   11   13 2
    26   11   14 1
    27   14   19 ar
    28   14   15 ar
    29   15   16 ar
    30   15   47 1
    31   16   17 ar
    32   16   48 1
    33   17   18 ar
    34   17   20 1
    35   18   19 ar
    36   18   49 1
    37   19   50 1
    38   21   23 1
    39   21   22 1
    40   21   24 1
    41   22   23 1
    42   22   51 1
    43   22   52 1
    44   23   53 1
    45   23   54 1
    46   24   25 1
    47   24   55 1
    48   24   56 1
    49   25   29 1
    50   25   26 2
    51   26   27 1
    52   27   28 2
    53   27   30 1
    54   28   29 1
    55   30   31 1
    56   30   57 1
    57   30   58 1
    58   31   35 1
    59   31   32 1
    60   31   67 1
    61   32   33 1
    62   32   59 1
    63   32   60 1
    64   33   34 1
    65   33   61 1
    66   33   62 1
    67   34   35 1
    68   34   63 1
    69   34   64 1
    70   35   65 1
    71   35   66 1
@<TRIPOS>MOLECULE
CHEMBL1209628
   48    51     0     0     0
SMALL
USER_CHARGES

@<TRIPOS>ATOM
      1 C1         -0.0810    1.8654    0.3762 C.3       1 <0>        -0.1589
      2 C2         -0.1653    0.3673    0.0769 C.3       1 <0>         0.1895
      3 H1          0.4143   -0.1843    0.8171 H         1 <0>         0.1210
      4 C3         -1.6045   -0.0760    0.1338 C.ar      1 <0>        -0.0980
      5 C4         -2.0431   -0.8666    1.1796 C.ar      1 <0>        -0.0946
      6 C5         -3.3630   -1.2735    1.2323 C.ar      1 <0>        -0.1073
      7 C6         -4.2452   -0.8895    0.2382 C.ar      1 <0>        -0.0309
      8 C7         -3.8057   -0.0983   -0.8082 C.ar      1 <0>        -0.1081
      9 C8         -2.4869    0.3127   -0.8568 C.ar      1 <0>        -0.1003
     10 Cl1        -5.9030   -1.4006    0.3034 Cl        1 <0>        -0.0659
     11 N1          0.3739    0.1052   -1.2598 N.pl3     1 <0>        -0.9842
     12 C9         -0.1169    0.8388   -2.4349 C.3       1 <0>         0.1899
     13 C10         1.0472    1.2783   -3.2835 C.2       1 <0>        -0.0741
     14 C11         0.9807    2.1661   -4.2974 C.2       1 <0>         0.0092
     15 N2          2.2097    2.2933   -4.8185 N.2       1 <0>        -0.4801
     16 C12         3.0346    1.5195   -4.1676 C.2       1 <0>         0.2028
     17 N3          2.3480    0.8777   -3.1970 N.pl3     1 <0>        -0.4313
     18 C13         2.9212   -0.0641   -2.2270 C.3       1 <0>        -0.3713
     19 S1          1.5691   -1.0294   -1.4993 S.o2      1 <0>         2.5996
     20 O1          1.9247   -1.4729   -0.1970 O.2       1 <0>        -0.9197
     21 O2          1.0355   -1.9321   -2.4582 O.2       1 <0>        -0.9222
     22 C14         3.6492    0.7094   -1.1258 C.3       1 <0>        -0.1032
     23 C15         4.5689   -0.2415   -0.3572 C.3       1 <0>        -0.1511
     24 C16         3.9021   -0.8987    0.8659 C.3       1 <0>         0.0634
     25 O3          5.1399   -0.6180    1.5497 O.3       1 <0>        -0.3838
     26 C17         5.4826    0.4650    0.6619 C.3       1 <0>         0.0519
     27 C18         5.3046   -1.2272   -1.2672 C.3       1 <0>        -0.1403
     28 H2          0.9600    2.1860    0.3350 H         1 <0>         0.0651
     29 H3         -0.6606    2.4170   -0.3640 H         1 <0>         0.0675
     30 H4         -0.4822    2.0604    1.3707 H         1 <0>         0.0785
     31 H5         -1.3543   -1.1666    1.9554 H         1 <0>         0.1369
     32 H6         -3.7054   -1.8914    2.0492 H         1 <0>         0.1370
     33 H7         -4.4938    0.2016   -1.5847 H         1 <0>         0.1365
     34 H8         -2.1448    0.9343   -1.6711 H         1 <0>         0.1365
     35 H9         -0.7683    0.1905   -3.0209 H         1 <0>         0.1003
     36 H10        -0.6777    1.7143   -2.1074 H         1 <0>         0.1184
     37 H11         0.0933    2.6833   -4.6309 H         1 <0>         0.1800
     38 H12         4.0897    1.4103   -4.3709 H         1 <0>         0.2102
     39 H13         3.6203   -0.7310   -2.7316 H         1 <0>         0.1622
     40 H14         4.2429    1.5065   -1.5733 H         1 <0>         0.1004
     41 H15         2.9189    1.1409   -0.4413 H         1 <0>         0.0873
     42 H16         3.0481   -0.3436    1.2540 H         1 <0>         0.0906
     43 H17         3.6995   -1.9623    0.7393 H         1 <0>         0.1086
     44 H18         6.5336    0.4832    0.3736 H         1 <0>         0.0938
     45 H19         5.1113    1.4367    0.9877 H         1 <0>         0.0823
     46 H20         5.9190   -0.6757   -1.9789 H         1 <0>         0.0723
     47 H21         5.9407   -1.8742   -0.6631 H         1 <0>         0.0815
     48 H22         4.5784   -1.8341   -1.8080 H         1 <0>         0.0518
@<TRIPOS>BOND
     1    1    2 1
     2    1   28 1
     3    1   29 1
     4    1   30 1
     5    2    3 1
     6    2    4 1
     7    2   11 1
     8    4    9 ar
     9    4    5 ar
    10    5    6 ar
    11    5   31 1
    12    6    7 ar
    13    6   32 1
    14    7    8 ar
    15    7   10 1
    16    8    9 ar
    17    8   33 1
    18    9   34 1
    19   11   19 1
    20   11   12 1
    21   12   13 1
    22   12   35 1
    23   12   36 1
    24   13   17 1
    25   13   14 2
    26   14   15 1
    27   14   37 1
    28   15   16 2
    29   16   17 1
    30   16   38 1
    31   17   18 1
    32   18   19 1
    33   18   22 1
    34   18   39 1
    35   19   20 2
    36   19   21 2
    37   22   23 1
    38   22   40 1
    39   22   41 1
    40   23   26 1
    41   23   24 1
    42   23   27 1
    43   24   25 1
    44   24   42 1
    45   24   43 1
    46   25   26 1
    47   26   44 1
    48   26   45 1
    49   27   46 1
    50   27   47 1
    51   27   48 1
@<TRIPOS>MOLECULE
CHEMBL1209628
   49    52     0     0     0
SMALL
USER_CHARGES

@<TRIPOS>ATOM
      1 C1         -0.3096    1.8656   -0.2196 C.3       1 <0>        -0.1610
      2 C2          0.0151    0.3711   -0.1730 C.3       1 <0>         0.1890
      3 H1         -0.9070   -0.1974   -0.0522 H         1 <0>         0.1286
      4 C3          0.6919   -0.0361   -1.4563 C.ar      1 <0>        -0.1085
      5 C4          0.0177   -0.8191   -2.3748 C.ar      1 <0>        -0.0904
      6 C5          0.6380   -1.1929   -3.5520 C.ar      1 <0>        -0.1027
      7 C6          1.9338   -0.7834   -3.8111 C.ar      1 <0>        -0.0264
      8 C7          2.6080    0.0002   -2.8916 C.ar      1 <0>        -0.1073
      9 C8          1.9848    0.3781   -1.7173 C.ar      1 <0>        -0.1042
     10 Cl1         2.7137   -1.2530   -5.2893 Cl        1 <0>        -0.0549
     11 N1          0.9073    0.1003    0.9570 N.pl3     1 <0>        -0.9819
     12 C9          2.1589    0.8501    1.1342 C.3       1 <0>         0.1694
     13 C10         2.3052    1.2631    2.5752 C.2       1 <0>         0.0105
     14 C11         3.2027    2.1559    3.0422 C.2       1 <0>         0.0330
     15 N2          3.0379    2.2540    4.3694 N.pl3     1 <0>        -0.4666
     16 C12         2.0739    1.4575    4.7427 C.cat     1 <0>         0.3047
     17 N3          1.5865    0.8297    3.6502 N.pl3     1 <0>        -0.3846
     18 C13         0.4747   -0.1295    3.6427 C.3       1 <0>        -0.3958
     19 S1          0.5352   -1.0631    2.0889 S.o2      1 <0>         2.5952
     20 O1         -0.7635   -1.5200    1.7368 O.2       1 <0>        -0.8881
     21 O2          1.6463   -1.9489    2.0882 O.2       1 <0>        -0.8993
     22 C14        -0.8549    0.6216    3.7379 C.3       1 <0>        -0.1081
     23 C15        -1.9653   -0.3548    4.1310 C.3       1 <0>        -0.1545
     24 C16        -2.6810   -0.9994    2.9289 C.3       1 <0>         0.0609
     25 O3         -3.8962   -0.7522    3.6644 O.3       1 <0>        -0.3752
     26 C17        -3.3155    0.3250    4.4266 C.3       1 <0>         0.0541
     27 C18        -1.5295   -1.3555    5.2032 C.3       1 <0>        -0.1450
     28 H2          0.6125    2.4341   -0.3403 H         1 <0>         0.0669
     29 H3         -0.9735    2.0671   -1.0603 H         1 <0>         0.0876
     30 H4         -0.7992    2.1601    0.7087 H         1 <0>         0.0645
     31 H5         -0.9937   -1.1390   -2.1722 H         1 <0>         0.1392
     32 H6          0.1113   -1.8049   -4.2693 H         1 <0>         0.1412
     33 H7          3.6197    0.3199   -3.0932 H         1 <0>         0.1384
     34 H8          2.5093    0.9937   -1.0015 H         1 <0>         0.1299
     35 H9          3.0020    0.2203    0.8502 H         1 <0>         0.1294
     36 H10         2.1419    1.7382    0.5025 H         1 <0>         0.1444
     37 H11         3.9270    2.6964    2.4509 H         1 <0>         0.2351
     38 H12         1.7245    1.3225    5.7557 H         1 <0>         0.2663
     39 H13         0.5728   -0.8120    4.4869 H         1 <0>         0.1873
     40 H14        -0.7764    1.4051    4.4916 H         1 <0>         0.1055
     41 H15        -1.0895    1.0689    2.7720 H         1 <0>         0.0987
     42 H16        -2.5990   -0.4243    2.0066 H         1 <0>         0.0927
     43 H17        -2.4537   -2.0570    2.7956 H         1 <0>         0.1119
     44 H18        -3.5913    0.3178    5.4811 H         1 <0>         0.0983
     45 H19        -3.4272    1.3045    3.9617 H         1 <0>         0.0848
     46 H20        -1.2287   -0.8170    6.1019 H         1 <0>         0.0742
     47 H21        -2.3605   -2.0203    5.4389 H         1 <0>         0.0906
     48 H22        -0.6888   -1.9420    4.8326 H         1 <0>         0.0512
     49 H23         3.5539    2.8261    4.9587 H         1 <0>         0.4712
@<TRIPOS>BOND
     1    1    2 1
     2    1   28 1
     3    1   29 1
     4    1   30 1
     5    2    3 1
     6    2    4 1
     7    2   11 1
     8    4    9 ar
     9    4    5 ar
    10    5    6 ar
    11    5   31 1
    12    6    7 ar
    13    6   32 1
    14    7    8 ar
    15    7   10 1
    16    8    9 ar
    17    8   33 1
    18    9   34 1
    19   11   19 1
    20   11   12 1
    21   12   13 1
    22   12   35 1
    23   12   36 1
    24   13   17 1
    25   13   14 2
    26   14   15 1
    27   14   37 1
    28   15   16 2
    29   15   49 1
    30   16   17 1
    31   16   38 1
    32   17   18 1
    33   18   19 1
    34   18   22 1
    35   18   39 1
    36   19   20 2
    37   19   21 2
    38   22   23 1
    39   22   40 1
    40   22   41 1
    41   23   26 1
    42   23   24 1
    43   23   27 1
    44   24   25 1
    45   24   42 1
    46   24   43 1
    47   25   26 1
    48   26   44 1
    49   26   45 1
    50   27   46 1
    51   27   47 1
    52   27   48 1
@<TRIPOS>MOLECULE
CHEMBL1209628
   48    51     0     0     0
SMALL
USER_CHARGES

@<TRIPOS>ATOM
      1 C1         -0.2029    1.2327    0.5289 C.3       1 <0>        -0.1617
      2 C2         -0.2128   -0.2024   -0.0016 C.3       1 <0>         0.1881
      3 H1          0.4161   -0.8282    0.6317 H         1 <0>         0.1194
      4 C3         -1.6234   -0.7327    0.0106 C.ar      1 <0>        -0.0964
      5 C4         -2.6627    0.0581   -0.4428 C.ar      1 <0>        -0.0924
      6 C5         -3.9566   -0.4277   -0.4319 C.ar      1 <0>        -0.1067
      7 C6         -4.2116   -1.7056    0.0329 C.ar      1 <0>        -0.0283
      8 C7         -3.1710   -2.4965    0.4865 C.ar      1 <0>        -0.1085
      9 C8         -1.8768   -2.0117    0.4698 C.ar      1 <0>        -0.0975
     10 Cl1        -5.8366   -2.3163    0.0474 Cl        1 <0>        -0.0644
     11 N1          0.3037   -0.2199   -1.3724 N.pl3     1 <0>        -0.9823
     12 C9         -0.3492    0.5497   -2.4407 C.3       1 <0>         0.1906
     13 C10        -0.4730   -0.3004   -3.6779 C.2       1 <0>        -0.0682
     14 C11        -1.2244    0.0002   -4.7575 C.2       1 <0>         0.0089
     15 N2         -1.0732   -0.9844   -5.6552 N.2       1 <0>        -0.4781
     16 C12        -0.2580   -1.8828   -5.1743 C.2       1 <0>         0.1937
     17 N3          0.1298   -1.4955   -3.9393 N.pl3     1 <0>        -0.4270
     18 C13         1.0260   -2.2474   -3.0518 C.3       1 <0>        -0.3613
     19 S1          1.6549   -1.1071   -1.7726 S.o2      1 <0>         2.5985
     20 O1          2.5580   -0.1694   -2.3421 O.2       1 <0>        -0.9199
     21 O2          1.9919   -1.8213   -0.5912 O.2       1 <0>        -0.9259
     22 C14         0.2559   -3.3930   -2.3919 C.3       1 <0>        -0.1140
     23 C15        -0.1756   -4.3996   -3.4604 C.3       1 <0>        -0.1283
     24 C16        -1.4705   -4.0079   -4.1971 C.3       1 <0>         0.0409
     25 O3         -1.8393   -5.3939   -4.0501 O.3       1 <0>        -0.3741
     26 C17        -0.9841   -5.5875   -2.9055 C.3       1 <0>         0.0477
     27 C18         0.9674   -4.8109   -4.3906 C.3       1 <0>        -0.1433
     28 H2          0.8174    1.6162    0.5201 H         1 <0>         0.0693
     29 H3         -0.8317    1.8585   -0.1043 H         1 <0>         0.0672
     30 H4         -0.5872    1.2457    1.5488 H         1 <0>         0.0776
     31 H5         -2.4636    1.0558   -0.8053 H         1 <0>         0.1362
     32 H6         -4.7686    0.1903   -0.7858 H         1 <0>         0.1361
     33 H7         -3.3694   -3.4941    0.8497 H         1 <0>         0.1353
     34 H8         -1.0638   -2.6307    0.8195 H         1 <0>         0.1353
     35 H9         -1.3417    0.8572   -2.1113 H         1 <0>         0.1157
     36 H10         0.2468    1.4339   -2.6666 H         1 <0>         0.1007
     37 H11        -1.8400    0.8795   -4.8775 H         1 <0>         0.1787
     38 H12         0.0541   -2.7852   -5.6788 H         1 <0>         0.2097
     39 H13         1.8606   -2.6485   -3.6268 H         1 <0>         0.1582
     40 H14         0.8967   -3.8892   -1.6631 H         1 <0>         0.1089
     41 H15        -0.6261   -2.9960   -1.8895 H         1 <0>         0.0928
     42 H16        -2.1055   -3.3208   -3.6378 H         1 <0>         0.0783
     43 H17        -1.3138   -3.7006   -5.2311 H         1 <0>         0.1012
     44 H18        -0.4418   -6.5329   -2.9151 H         1 <0>         0.0958
     45 H19        -1.4706   -5.3827   -1.9519 H         1 <0>         0.0824
     46 H20         1.7413   -5.3168   -3.8135 H         1 <0>         0.0729
     47 H21         0.5868   -5.4853   -5.1577 H         1 <0>         0.0770
     48 H22         1.3883   -3.9235   -4.8634 H         1 <0>         0.0612
@<TRIPOS>BOND
     1    1    2 1
     2    1   28 1
     3    1   29 1
     4    1   30 1
     5    2    3 1
     6    2    4 1
     7    2   11 1
     8    4    9 ar
     9    4    5 ar
    10    5    6 ar
    11    5   31 1
    12    6    7 ar
    13    6   32 1
    14    7    8 ar
    15    7   10 1
    16    8    9 ar
    17    8   33 1
    18    9   34 1
    19   11   19 1
    20   11   12 1
    21   12   13 1
    22   12   35 1
    23   12   36 1
    24   13   17 1
    25   13   14 2
    26   14   15 1
    27   14   37 1
    28   15   16 2
    29   16   17 1
    30   16   38 1
    31   17   18 1
    32   18   19 1
    33   18   22 1
    34   18   39 1
    35   19   20 2
    36   19   21 2
    37   22   23 1
    38   22   40 1
    39   22   41 1
    40   23   26 1
    41   23   24 1
    42   23   27 1
    43   24   25 1
    44   24   42 1
    45   24   43 1
    46   25   26 1
    47   26   44 1
    48   26   45 1
    49   27   46 1
    50   27   47 1
    51   27   48 1
@<TRIPOS>MOLECULE
CHEMBL1209628
   49    52     0     0     0
SMALL
USER_CHARGES

@<TRIPOS>ATOM
      1 C1         -0.3711    1.2356   -0.4139 C.3       1 <0>        -0.1649
      2 C2          0.1156   -0.1969   -0.1861 C.3       1 <0>         0.1871
      3 H1         -0.7373   -0.8405    0.0292 H         1 <0>         0.1277
      4 C3          0.8183   -0.6915   -1.4241 C.ar      1 <0>        -0.1060
      5 C4          1.7181    0.1267   -2.0814 C.ar      1 <0>        -0.0997
      6 C5          2.3629   -0.3264   -3.2168 C.ar      1 <0>        -0.1073
      7 C6          2.1077   -1.5991   -3.6956 C.ar      1 <0>        -0.0270
      8 C7          1.2071   -2.4176   -3.0373 C.ar      1 <0>        -0.1057
      9 C8          0.5672   -1.9654   -1.8987 C.ar      1 <0>        -0.0966
     10 Cl1         2.9168   -2.1688   -5.1220 Cl        1 <0>        -0.0537
     11 N1          1.0449   -0.2227    0.9461 N.pl3     1 <0>        -0.9802
     12 C9          2.2844    0.5669    0.9305 C.3       1 <0>         0.1714
     13 C10         3.4309   -0.2756    1.4248 C.2       1 <0>         0.0164
     14 C11         4.7367    0.0476    1.3201 C.2       1 <0>         0.0333
     15 N2          5.4539   -0.9374    1.8801 N.pl3     1 <0>        -0.4666
     16 C12         4.6440   -1.8577    2.3274 C.cat     1 <0>         0.2890
     17 N3          3.3747   -1.4846    2.0535 N.pl3     1 <0>        -0.3791
     18 C13         2.1700   -2.2619    2.3705 C.3       1 <0>        -0.3847
     19 S1          0.7300   -1.1422    2.2983 S.o2      1 <0>         2.5967
     20 O1          0.7573   -0.2255    3.3838 O.2       1 <0>        -0.8968
     21 O2         -0.4504   -1.8687    1.9851 O.2       1 <0>        -0.8929
     22 C14         2.0012   -3.3900    1.3509 C.3       1 <0>        -0.1224
     23 C15         3.1578   -4.3817    1.4913 C.3       1 <0>        -0.1384
     24 C16         4.4368   -3.9551    0.7464 C.3       1 <0>         0.0258
     25 O3          4.5154   -5.3319    0.3258 O.3       1 <0>        -0.3591
     26 C17         3.0998   -5.5508    0.4901 C.3       1 <0>         0.0526
     27 C18         3.3986   -4.8183    2.9378 C.3       1 <0>        -0.1503
     28 H2          0.4819    1.8792   -0.6292 H         1 <0>         0.0680
     29 H3         -1.0625    1.2548   -1.2564 H         1 <0>         0.0851
     30 H4         -0.8793    1.5934    0.4815 H         1 <0>         0.0739
     31 H5          1.9169    1.1203   -1.7078 H         1 <0>         0.1364
     32 H6          3.0655    0.3130   -3.7304 H         1 <0>         0.1386
     33 H7          1.0073   -3.4111   -3.4107 H         1 <0>         0.1392
     34 H8         -0.1322   -2.6059   -1.3821 H         1 <0>         0.1382
     35 H9          2.4904    0.8980   -0.0873 H         1 <0>         0.1411
     36 H10         2.1684    1.4366    1.5772 H         1 <0>         0.1310
     37 H11         5.1346    0.9424    0.8648 H         1 <0>         0.2356
     38 H12         4.9391   -2.7660    2.8318 H         1 <0>         0.2631
     39 H13         2.2570   -2.6819    3.3726 H         1 <0>         0.1840
     40 H14         1.0574   -3.9047    1.5313 H         1 <0>         0.1324
     41 H15         2.0007   -2.9726    0.3440 H         1 <0>         0.1041
     42 H16         4.2591   -3.2543   -0.0693 H         1 <0>         0.0819
     43 H17         5.2492   -3.6482    1.4051 H         1 <0>         0.0822
     44 H18         2.8518   -6.5096    0.9456 H         1 <0>         0.1065
     45 H19         2.5139   -5.3373   -0.4038 H         1 <0>         0.0917
     46 H20         2.5199   -5.3455    3.3092 H         1 <0>         0.0868
     47 H21         4.2636   -5.4803    2.9783 H         1 <0>         0.0860
     48 H22         3.5839   -3.9402    3.5564 H         1 <0>         0.0547
     49 H23         6.4216   -0.9622    1.9424 H         1 <0>         0.4709
@<TRIPOS>BOND
     1    1    2 1
     2    1   28 1
     3    1   29 1
     4    1   30 1
     5    2    3 1
     6    2    4 1
     7    2   11 1
     8    4    9 ar
     9    4    5 ar
    10    5    6 ar
    11    5   31 1
    12    6    7 ar
    13    6   32 1
    14    7    8 ar
    15    7   10 1
    16    8    9 ar
    17    8   33 1
    18    9   34 1
    19   11   19 1
    20   11   12 1
    21   12   13 1
    22   12   35 1
    23   12   36 1
    24   13   17 1
    25   13   14 2
    26   14   15 1
    27   14   37 1
    28   15   16 2
    29   15   49 1
    30   16   17 1
    31   16   38 1
    32   17   18 1
    33   18   19 1
    34   18   22 1
    35   18   39 1
    36   19   20 2
    37   19   21 2
    38   22   23 1
    39   22   40 1
    40   22   41 1
    41   23   26 1
    42   23   24 1
    43   23   27 1
    44   24   25 1
    45   24   42 1
    46   24   43 1
    47   25   26 1
    48   26   44 1
    49   26   45 1
    50   27   46 1
    51   27   47 1
    52   27   48 1
@<TRIPOS>MOLECULE
CHEMBL252001
   73    76     0     0     0
SMALL
USER_CHARGES

@<TRIPOS>ATOM
      1 C1         -3.5122    0.6981    2.8372 C.3       1 <0>        -0.1439
      2 C2         -4.0419    1.0285    1.4404 C.3       1 <0>        -0.2049
      3 C3         -3.2770    0.2101    0.3982 C.3       1 <0>         0.1596
      4 H1         -3.3113   -0.8459    0.6659 H         1 <0>         0.0877
      5 C4         -1.8197    0.6795    0.3452 C.3       1 <0>        -0.1310
      6 C5         -1.0959   -0.0443   -0.7926 C.3       1 <0>        -0.1204
      7 C6         -1.7635    0.3014   -2.1256 C.3       1 <0>        -0.1314
      8 C7         -3.2201   -0.1722   -2.1006 C.3       1 <0>         0.1997
      9 H2         -3.2497   -1.2601   -2.0392 H         1 <0>         0.0951
     10 N1         -3.8874    0.4031   -0.9243 N.pl3     1 <0>        -0.9889
     11 S1         -5.2974    1.2562   -1.0865 S.o2      1 <0>         2.6744
     12 O1         -5.4558    1.5190   -2.4740 O.2       1 <0>        -0.9277
     13 O2         -6.2791    0.5667   -0.3248 O.2       1 <0>        -0.9536
     14 C8         -5.0558    2.8157   -0.3028 C.ar      1 <0>        -0.6803
     15 C9         -5.5695    3.0410    0.9607 C.ar      1 <0>         0.0011
     16 C10        -5.3803    4.2641    1.5759 C.ar      1 <0>        -0.1350
     17 C11        -4.6767    5.2631    0.9270 C.ar      1 <0>         0.0216
     18 C12        -4.1629    5.0371   -0.3376 C.ar      1 <0>        -0.1367
     19 C13        -4.3479    3.8116   -0.9495 C.ar      1 <0>        -0.0072
     20 Cl1        -4.4392    6.7998    1.6988 Cl        1 <0>        -0.0460
     21 C14        -3.9314    0.2891   -3.3743 C.3       1 <0>        -0.1345
     22 C15        -4.1838   -0.7579   -4.4611 C.3       1 <0>        -0.1794
     23 C16        -5.3488   -0.2320   -3.6201 C.3       1 <0>        -0.1239
     24 C17        -3.6147    1.7158   -3.8272 C.3       1 <0>         0.0142
     25 C18        -4.4841    2.0736   -5.0050 C.2       1 <0>         0.3411
     26 N2         -5.6608    2.6325   -4.9444 N.2       1 <0>        -0.5041
     27 C19        -6.1498    2.8080   -6.1772 C.2       1 <0>         0.1856
     28 N3         -5.2850    2.3604   -7.0416 N.2       1 <0>        -0.3082
     29 O3         -4.1787    1.8777   -6.2938 O.3       1 <0>        -0.0779
     30 C20        -7.4844    3.4232   -6.5110 C.3       1 <0>         0.0864
     31 N4         -7.3272    4.8745   -6.6757 N.4       1 <0>        -0.3772
     32 C21        -6.9333    5.4730   -5.3932 C.3       1 <0>        -0.0617
     33 C22        -8.6008    5.4580   -7.1177 C.3       1 <0>         0.0542
     34 C23        -9.0110    4.8347   -8.4534 C.3       1 <0>        -0.1751
     35 C24        -9.6808    5.1775   -6.0709 C.3       1 <0>        -0.1744
     36 C25        -8.4370    6.9695   -7.2892 C.3       1 <0>         0.0686
     37 O4         -9.6760    7.5371   -7.7192 O.3       1 <0>        -0.5512
     38 H3         -3.9955    1.3432    3.5710 H         1 <0>         0.0638
     39 H4         -3.7292   -0.3442    3.0709 H         1 <0>         0.0635
     40 H5         -2.4346    0.8599    2.8649 H         1 <0>         0.0636
     41 H6         -5.1028    0.7843    1.3869 H         1 <0>         0.0919
     42 H7         -3.9031    2.0911    1.2411 H         1 <0>         0.0913
     43 H8         -1.7900    1.7548    0.1694 H         1 <0>         0.0675
     44 H9         -1.3294    0.4513    1.2916 H         1 <0>         0.0813
     45 H10        -0.0524    0.2696   -0.8168 H         1 <0>         0.0719
     46 H11        -1.1474   -1.1207   -0.6290 H         1 <0>         0.0692
     47 H12        -1.7343    1.3803   -2.2781 H         1 <0>         0.0694
     48 H13        -1.2332   -0.1958   -2.9378 H         1 <0>         0.0837
     49 H14        -6.1190    2.2612    1.4670 H         1 <0>         0.1542
     50 H15        -5.7819    4.4401    2.5629 H         1 <0>         0.1473
     51 H16        -3.6139    5.8166   -0.8448 H         1 <0>         0.1423
     52 H17        -3.9427    3.6334   -1.9346 H         1 <0>         0.1386
     53 H18        -4.1242   -0.4304   -5.4990 H         1 <0>         0.0947
     54 H19        -3.8432   -1.7753   -4.2686 H         1 <0>         0.1074
     55 H20        -5.7746   -0.9033   -2.8745 H         1 <0>         0.0917
     56 H21        -6.0556    0.4416   -4.1048 H         1 <0>         0.1144
     57 H22        -3.8091    2.4085   -3.0083 H         1 <0>         0.1194
     58 H23        -2.5659    1.7807   -4.1167 H         1 <0>         0.1021
     59 H24        -7.8620    2.9912   -7.4378 H         1 <0>         0.1612
     60 H25        -8.1888    3.2234   -5.7036 H         1 <0>         0.1681
     61 H26        -6.8166    6.5498   -5.5154 H         1 <0>         0.1277
     62 H27        -7.7027    5.2731   -4.6475 H         1 <0>         0.1358
     63 H28        -5.9883    5.0400   -5.0652 H         1 <0>         0.1267
     64 H29        -9.1277    3.7578   -8.3312 H         1 <0>         0.0825
     65 H30        -9.9560    5.2676   -8.7814 H         1 <0>         0.1180
     66 H31        -8.2416    5.0345   -9.1992 H         1 <0>         0.0820
     67 H32        -9.3886    5.6216   -5.1194 H         1 <0>         0.0841
     68 H33       -10.6258    5.6104   -6.3989 H         1 <0>         0.1163
     69 H34        -9.7975    4.1007   -5.9488 H         1 <0>         0.0830
     70 H35        -8.1448    7.4136   -6.3376 H         1 <0>         0.0712
     71 H36        -7.6676    7.1693   -8.0349 H         1 <0>         0.0685
     72 H37        -9.6459    8.4949   -7.8486 H         1 <0>         0.4060
     73 H38        -6.6149    5.0594   -7.3660 H         1 <0>         0.4252
@<TRIPOS>BOND
     1    1    2 1
     2    1   38 1
     3    1   39 1
     4    1   40 1
     5    2    3 1
     6    2   41 1
     7    2   42 1
     8    3    4 1
     9    3   10 1
    10    3    5 1
    11    5    6 1
    12    5   43 1
    13    5   44 1
    14    6    7 1
    15    6   45 1
    16    6   46 1
    17    7    8 1
    18    7   47 1
    19    7   48 1
    20    8    9 1
    21    8   10 1
    22    8   21 1
    23   10   11 1
    24   11   12 2
    25   11   13 2
    26   11   14 1
    27   14   19 ar
    28   14   15 ar
    29   15   16 ar
    30   15   49 1
    31   16   17 ar
    32   16   50 1
    33   17   18 ar
    34   17   20 1
    35   18   19 ar
    36   18   51 1
    37   19   52 1
    38   21   23 1
    39   21   22 1
    40   21   24 1
    41   22   23 1
    42   22   53 1
    43   22   54 1
    44   23   55 1
    45   23   56 1
    46   24   25 1
    47   24   57 1
    48   24   58 1
    49   25   29 1
    50   25   26 2
    51   26   27 1
    52   27   28 2
    53   27   30 1
    54   28   29 1
    55   30   31 1
    56   30   59 1
    57   30   60 1
    58   31   32 1
    59   31   33 1
    60   31   73 1
    61   32   61 1
    62   32   62 1
    63   32   63 1
    64   33   34 1
    65   33   35 1
    66   33   36 1
    67   34   64 1
    68   34   65 1
    69   34   66 1
    70   35   67 1
    71   35   68 1
    72   35   69 1
    73   36   37 1
    74   36   70 1
    75   36   71 1
    76   37   72 1
@<TRIPOS>MOLECULE
CHEMBL446793
   38    41     0     0     0
SMALL
USER_CHARGES

@<TRIPOS>ATOM
      1 C1          1.4396    3.8792    2.4766 C.ar      1 <0>        -0.1195
      2 C2          1.9225    3.3864    1.2819 C.ar      1 <0>        -0.0572
      3 C3          3.1340    2.6926    1.2546 C.ar      1 <0>        -0.1428
      4 C4          3.8494    2.5022    2.4389 C.ar      1 <0>        -0.0543
      5 C5          3.3551    3.0004    3.6274 C.ar      1 <0>        -0.0481
      6 C6          2.1526    3.6876    3.6465 C.ar      1 <0>        -0.0825
      7 Cl1         4.2421    2.7652    5.1011 Cl        1 <0>        -0.0652
      8 C7          3.6567    2.1617   -0.0218 C.2       1 <0>         0.4498
      9 O1          2.9867    2.2417   -1.0333 O.2       1 <0>        -0.4214
     10 C8          4.9905    1.5351   -0.0686 C.ar      1 <0>        -0.1445
     11 C9          5.1115    0.1474   -0.1506 C.ar      1 <0>        -0.0241
     12 C10         6.3588   -0.4467   -0.1948 C.ar      1 <0>        -0.0730
     13 C11         7.5034    0.3241   -0.1584 C.ar      1 <0>        -0.0487
     14 C12         7.4056    1.7121   -0.0766 C.ar      1 <0>        -0.1327
     15 C13         6.1461    2.3313   -0.0367 C.ar      1 <0>         0.0731
     16 O2          6.3537    3.6589    0.0331 O.3       1 <0>        -0.1949
     17 C14         7.6687    3.9400    0.0356 C.2       1 <0>        -0.0006
     18 C15         8.3822    2.8073   -0.0208 C.2       1 <0>        -0.2024
     19 C16         6.4698   -1.9470   -0.2828 C.3       1 <0>         0.0027
     20 C17         6.4958   -2.3647   -1.7305 C.ar      1 <0>        -0.0799
     21 C18         7.5361   -3.1492   -2.2080 C.ar      1 <0>        -0.0901
     22 C19         7.5188   -3.5094   -3.5466 C.ar      1 <0>        -0.2331
     23 C20         6.4575   -3.0610   -4.3289 C.ar      1 <0>         0.3577
     24 O3          6.3953   -3.3873   -5.6446 O.3       1 <0>        -0.7055
     25 N1          5.5095   -2.3156   -3.7837 N.ar      1 <0>        -0.3546
     26 N2          5.5276   -1.9895   -2.5425 N.ar      1 <0>        -0.1948
     27 H1          0.5049    4.4198    2.4978 H         1 <0>         0.1397
     28 H2          1.3644    3.5367    0.3696 H         1 <0>         0.1420
     29 H3          4.7869    1.9661    2.4248 H         1 <0>         0.1419
     30 H4          1.7700    4.0759    4.5789 H         1 <0>         0.1376
     31 H5          4.2239   -0.4671   -0.1794 H         1 <0>         0.1431
     32 H6          8.4741   -0.1481   -0.1930 H         1 <0>         0.1302
     33 H7          8.0886    4.9338    0.0847 H         1 <0>         0.2063
     34 H8          9.4584    2.7184   -0.0340 H         1 <0>         0.1581
     35 H9          7.3881   -2.2726    0.2059 H         1 <0>         0.0783
     36 H10         5.6130   -2.4044    0.2120 H         1 <0>         0.0789
     37 H11         8.3356   -3.4693   -1.5563 H         1 <0>         0.1138
     38 H12         8.3040   -4.1185   -3.9696 H         1 <0>         0.1163
@<TRIPOS>BOND
     1    1    6 ar
     2    1    2 ar
     3    1   27 1
     4    2    3 ar
     5    2   28 1
     6    3    4 ar
     7    3    8 1
     8    4    5 ar
     9    4   29 1
    10    5    6 ar
    11    5    7 1
    12    6   30 1
    13    8    9 2
    14    8   10 1
    15   10   15 ar
    16   10   11 ar
    17   11   12 ar
    18   11   31 1
    19   12   13 ar
    20   12   19 1
    21   13   14 ar
    22   13   32 1
    23   14   18 1
    24   14   15 ar
    25   15   16 1
    26   16   17 1
    27   17   18 2
    28   17   33 1
    29   18   34 1
    30   19   20 1
    31   19   35 1
    32   19   36 1
    33   20   26 ar
    34   20   21 ar
    35   21   22 ar
    36   21   37 1
    37   22   23 ar
    38   22   38 1
    39   23   24 1
    40   23   25 ar
    41   25   26 ar
@<TRIPOS>MOLECULE
CHEMBL446793
   39    42     0     0     0
SMALL
USER_CHARGES

@<TRIPOS>ATOM
      1 C1          1.4396    3.8792    2.4766 C.ar      1 <0>        -0.1173
      2 C2          1.9225    3.3864    1.2819 C.ar      1 <0>        -0.0553
      3 C3          3.1340    2.6926    1.2546 C.ar      1 <0>        -0.1517
      4 C4          3.8494    2.5022    2.4389 C.ar      1 <0>        -0.0556
      5 C5          3.3551    3.0004    3.6274 C.ar      1 <0>        -0.0483
      6 C6          2.1526    3.6876    3.6465 C.ar      1 <0>        -0.0768
      7 Cl1         4.2421    2.7652    5.1011 Cl        1 <0>        -0.0596
      8 C7          3.6567    2.1617   -0.0218 C.2       1 <0>         0.4509
      9 O1          2.9867    2.2417   -1.0333 O.2       1 <0>        -0.4273
     10 C8          4.9905    1.5351   -0.0686 C.ar      1 <0>        -0.1355
     11 C9          5.1115    0.1474   -0.1506 C.ar      1 <0>        -0.0399
     12 C10         6.3588   -0.4467   -0.1948 C.ar      1 <0>        -0.0899
     13 C11         7.5034    0.3241   -0.1584 C.ar      1 <0>        -0.0352
     14 C12         7.4056    1.7121   -0.0766 C.ar      1 <0>        -0.1267
     15 C13         6.1461    2.3313   -0.0367 C.ar      1 <0>         0.0808
     16 O2          6.3537    3.6589    0.0331 O.3       1 <0>        -0.1916
     17 C14         7.6687    3.9400    0.0356 C.2       1 <0>         0.0117
     18 C15         8.3822    2.8073   -0.0208 C.2       1 <0>        -0.2058
     19 C16         6.4698   -1.9470   -0.2828 C.3       1 <0>        -0.0106
     20 C17         6.4958   -2.3647   -1.7305 C.2       1 <0>         0.0574
     21 C18         6.5899   -3.7265   -2.0619 C.2       1 <0>        -0.0624
     22 C19         6.6107   -4.0719   -3.3833 C.2       1 <0>        -0.1829
     23 C20         6.5360   -3.0335   -4.3366 C.2       1 <0>         0.4758
     24 O3          6.5504   -3.2896   -5.5300 O.2       1 <0>        -0.5328
     25 N1          6.4481   -1.7573   -3.9156 N.am      1 <0>        -0.4460
     26 H1          6.3968   -1.0452   -4.5723 H         1 <0>         0.4406
     27 N2          6.4254   -1.4598   -2.6668 N.2       1 <0>        -0.2048
     28 H2          0.5049    4.4198    2.4978 H         1 <0>         0.1424
     29 H3          1.3644    3.5367    0.3696 H         1 <0>         0.1419
     30 H4          4.7869    1.9661    2.4248 H         1 <0>         0.1401
     31 H5          1.7700    4.0759    4.5789 H         1 <0>         0.1408
     32 H6          4.2239   -0.4671   -0.1794 H         1 <0>         0.1382
     33 H7          8.4741   -0.1481   -0.1930 H         1 <0>         0.1320
     34 H8          8.0886    4.9338    0.0847 H         1 <0>         0.2110
     35 H9          9.4584    2.7184   -0.0340 H         1 <0>         0.1620
     36 H10         7.3881   -2.2726    0.2059 H         1 <0>         0.1051
     37 H11         5.6130   -2.4044    0.2120 H         1 <0>         0.1046
     38 H12         6.6448   -4.4813   -1.2914 H         1 <0>         0.1558
     39 H13         6.6823   -5.1054   -3.6887 H         1 <0>         0.1651
@<TRIPOS>BOND
     1    1    6 ar
     2    1    2 ar
     3    1   28 1
     4    2    3 ar
     5    2   29 1
     6    3    4 ar
     7    3    8 1
     8    4    5 ar
     9    4   30 1
    10    5    6 ar
    11    5    7 1
    12    6   31 1
    13    8    9 2
    14    8   10 1
    15   10   15 ar
    16   10   11 ar
    17   11   12 ar
    18   11   32 1
    19   12   13 ar
    20   12   19 1
    21   13   14 ar
    22   13   33 1
    23   14   18 1
    24   14   15 ar
    25   15   16 1
    26   16   17 1
    27   17   18 2
    28   17   34 1
    29   18   35 1
    30   19   20 1
    31   19   36 1
    32   19   37 1
    33   20   27 2
    34   20   21 1
    35   21   22 2
    36   21   38 1
    37   22   23 1
    38   22   39 1
    39   23   24 2
    40   23   25 am
    41   25   26 1
    42   25   27 1
@<TRIPOS>MOLECULE
CHEMBL504522
   39    42     0     0     0
SMALL
USER_CHARGES

@<TRIPOS>ATOM
      1 C1         -0.0167    1.3777    0.0096 C.ar      1 <0>        -0.0998
      2 C2          1.1710    2.0855    0.0021 C.ar      1 <0>        -0.0969
      3 C3          2.3777    1.4116   -0.0130 C.ar      1 <0>        -0.0656
      4 C4          2.3977    0.0294   -0.0210 C.ar      1 <0>        -0.1041
      5 C5          1.2098   -0.6793   -0.0135 C.ar      1 <0>        -0.0350
      6 C6          0.0021   -0.0041    0.0020 C.ar      1 <0>        -0.1154
      7 Cl1         1.2341   -2.4151   -0.0242 Cl        1 <0>        -0.0812
      8 C7          3.6718    2.1839   -0.0212 C.3       1 <0>        -0.0343
      9 C8          4.1167    2.4337    1.3968 C.ar      1 <0>        -0.0733
     10 C9          3.7901    3.6172    2.0238 C.ar      1 <0>        -0.0596
     11 C10         4.1923    3.8617    3.3286 C.ar      1 <0>        -0.0684
     12 C11         4.9259    2.9207    4.0171 C.ar      1 <0>        -0.0726
     13 C12         5.2623    1.7197    3.3948 C.ar      1 <0>        -0.1318
     14 C13         4.8511    1.4694    2.0747 C.ar      1 <0>         0.0533
     15 O1          5.3072    0.2458    1.7388 O.3       1 <0>        -0.1964
     16 C14         5.9822   -0.3112    2.7595 C.2       1 <0>        -0.0032
     17 C15         6.0089    0.5248    3.8063 C.2       1 <0>        -0.2088
     18 C16         3.8257    5.1624    3.9956 C.3       1 <0>         0.0025
     19 C17         2.5012    5.0108    4.6983 C.ar      1 <0>        -0.0764
     20 C18         2.3928    5.3141    6.0480 C.ar      1 <0>        -0.0909
     21 C19         1.1549    5.1597    6.6528 C.ar      1 <0>        -0.2339
     22 C20         0.0968    4.7095    5.8671 C.ar      1 <0>         0.3575
     23 O2         -1.1343    4.5428    6.4129 O.3       1 <0>        -0.7071
     24 N1          0.2970    4.4453    4.5859 N.ar      1 <0>        -0.3557
     25 N2          1.4440    4.5952    4.0297 N.ar      1 <0>        -0.1939
     26 H1         -0.9592    1.9048    0.0259 H         1 <0>         0.1340
     27 H2          1.1559    3.1654    0.0076 H         1 <0>         0.1325
     28 H3          3.3407   -0.4970   -0.0336 H         1 <0>         0.1302
     29 H4         -0.9257   -0.5568    0.0079 H         1 <0>         0.1298
     30 H5          4.4349    1.6086   -0.5454 H         1 <0>         0.0815
     31 H6          3.5229    3.1370   -0.5286 H         1 <0>         0.0891
     32 H7          3.2153    4.3620    1.4933 H         1 <0>         0.1367
     33 H8          5.2388    3.1124    5.0329 H         1 <0>         0.1229
     34 H9          6.4435   -1.2874    2.7360 H         1 <0>         0.2023
     35 H10         6.4771    0.3504    4.7638 H         1 <0>         0.1530
     36 H11         4.5941    5.4275    4.7219 H         1 <0>         0.0743
     37 H12         3.7503    5.9478    3.2436 H         1 <0>         0.0764
     38 H13         3.2474    5.6598    6.6106 H         1 <0>         0.1128
     39 H14         1.0155    5.3813    7.7006 H         1 <0>         0.1154
@<TRIPOS>BOND
     1    1    6 ar
     2    1    2 ar
     3    1   26 1
     4    2    3 ar
     5    2   27 1
     6    3    4 ar
     7    3    8 1
     8    4    5 ar
     9    4   28 1
    10    5    6 ar
    11    5    7 1
    12    6   29 1
    13    8    9 1
    14    8   30 1
    15    8   31 1
    16    9   14 ar
    17    9   10 ar
    18   10   11 ar
    19   10   32 1
    20   11   12 ar
    21   11   18 1
    22   12   13 ar
    23   12   33 1
    24   13   17 1
    25   13   14 ar
    26   14   15 1
    27   15   16 1
    28   16   17 2
    29   16   34 1
    30   17   35 1
    31   18   19 1
    32   18   36 1
    33   18   37 1
    34   19   25 ar
    35   19   20 ar
    36   20   21 ar
    37   20   38 1
    38   21   22 ar
    39   21   39 1
    40   22   23 1
    41   22   24 ar
    42   24   25 ar
@<TRIPOS>MOLECULE
CHEMBL504522
   40    43     0     0     0
SMALL
USER_CHARGES

@<TRIPOS>ATOM
      1 C1         -0.0167    1.3777    0.0096 C.ar      1 <0>        -0.1056
      2 C2          1.1710    2.0855    0.0021 C.ar      1 <0>        -0.1077
      3 C3          2.3777    1.4116   -0.0130 C.ar      1 <0>        -0.0643
      4 C4          2.3977    0.0294   -0.0210 C.ar      1 <0>        -0.1015
      5 C5          1.2098   -0.6793   -0.0135 C.ar      1 <0>        -0.0318
      6 C6          0.0021   -0.0041    0.0020 C.ar      1 <0>        -0.1140
      7 Cl1         1.2341   -2.4151   -0.0242 Cl        1 <0>        -0.0700
      8 C7          3.6718    2.1839   -0.0212 C.3       1 <0>        -0.0401
      9 C8          4.1167    2.4337    1.3968 C.ar      1 <0>        -0.0637
     10 C9          3.7901    3.6172    2.0238 C.ar      1 <0>        -0.0749
     11 C10         4.1923    3.8617    3.3286 C.ar      1 <0>        -0.0854
     12 C11         4.9259    2.9207    4.0171 C.ar      1 <0>        -0.0581
     13 C12         5.2623    1.7197    3.3948 C.ar      1 <0>        -0.1257
     14 C13         4.8511    1.4694    2.0747 C.ar      1 <0>         0.0604
     15 O1          5.3072    0.2458    1.7388 O.3       1 <0>        -0.1937
     16 C14         5.9822   -0.3112    2.7595 C.2       1 <0>         0.0090
     17 C15         6.0089    0.5248    3.8063 C.2       1 <0>        -0.2118
     18 C16         3.8257    5.1624    3.9956 C.3       1 <0>        -0.0109
     19 C17         2.5012    5.0108    4.6983 C.2       1 <0>         0.0588
     20 C18         1.9498    6.1020    5.3900 C.2       1 <0>        -0.0623
     21 C19         0.7476    5.9318    6.0159 C.2       1 <0>        -0.1844
     22 C20         0.1328    4.6642    5.9274 C.2       1 <0>         0.4755
     23 O2         -0.9421    4.4609    6.4689 O.2       1 <0>        -0.5340
     24 N1          0.7444    3.6815    5.2390 N.am      1 <0>        -0.4465
     25 H1          0.3202    2.8112    5.1794 H         1 <0>         0.4397
     26 N2          1.8725    3.8691    4.6553 N.2       1 <0>        -0.2022
     27 H2         -0.9592    1.9048    0.0259 H         1 <0>         0.1316
     28 H3          1.1559    3.1654    0.0076 H         1 <0>         0.1272
     29 H4          3.3407   -0.4970   -0.0336 H         1 <0>         0.1335
     30 H5         -0.9257   -0.5568    0.0079 H         1 <0>         0.1323
     31 H6          4.4349    1.6086   -0.5454 H         1 <0>         0.0866
     32 H7          3.5229    3.1370   -0.5286 H         1 <0>         0.0906
     33 H8          3.2153    4.3620    1.4933 H         1 <0>         0.1317
     34 H9          5.2388    3.1124    5.0329 H         1 <0>         0.1247
     35 H10         6.4435   -1.2874    2.7360 H         1 <0>         0.2070
     36 H11         6.4771    0.3504    4.7638 H         1 <0>         0.1570
     37 H12         4.5941    5.4275    4.7219 H         1 <0>         0.1013
     38 H13         3.7503    5.9478    3.2436 H         1 <0>         0.1021
     39 H14         2.4634    7.0513    5.4263 H         1 <0>         0.1550
     40 H15         0.2830    6.7403    6.5607 H         1 <0>         0.1644
@<TRIPOS>BOND
     1    1    6 ar
     2    1    2 ar
     3    1   27 1
     4    2    3 ar
     5    2   28 1
     6    3    4 ar
     7    3    8 1
     8    4    5 ar
     9    4   29 1
    10    5    6 ar
    11    5    7 1
    12    6   30 1
    13    8    9 1
    14    8   31 1
    15    8   32 1
    16    9   14 ar
    17    9   10 ar
    18   10   11 ar
    19   10   33 1
    20   11   12 ar
    21   11   18 1
    22   12   13 ar
    23   12   34 1
    24   13   17 1
    25   13   14 ar
    26   14   15 1
    27   15   16 1
    28   16   17 2
    29   16   35 1
    30   17   36 1
    31   18   19 1
    32   18   37 1
    33   18   38 1
    34   19   26 2
    35   19   20 1
    36   20   21 2
    37   20   39 1
    38   21   22 1
    39   21   40 1
    40   22   23 2
    41   22   24 am
    42   24   25 1
    43   24   26 1
@<TRIPOS>MOLECULE
CHEMBL240070
   67    70     0     0     0
SMALL
USER_CHARGES

@<TRIPOS>ATOM
      1 C1         -1.2807   -2.3131   -0.6761 C.3       1 <0>        -0.1438
      2 C2         -0.0521   -1.5072   -0.2497 C.3       1 <0>        -0.1993
      3 C3          0.9702   -1.4953   -1.3881 C.3       1 <0>         0.1594
      4 H1          0.5218   -1.0521   -2.2772 H         1 <0>         0.0794
      5 C4          1.4124   -2.9292   -1.6963 C.3       1 <0>        -0.1308
      6 C5          2.5342   -2.9004   -2.7368 C.3       1 <0>        -0.1175
      7 C6          3.7343   -2.1351   -2.1745 C.3       1 <0>        -0.1275
      8 C7          3.3185   -0.6922   -1.8717 C.3       1 <0>         0.2107
      9 H2          3.0639   -0.1826   -2.8010 H         1 <0>         0.0932
     10 N1          2.1458   -0.7109   -0.9862 N.pl3     1 <0>        -0.9884
     11 S1          2.1506    0.1320    0.4392 S.o2      1 <0>         2.6813
     12 O1          1.7131   -0.7702    1.4461 O.2       1 <0>        -0.9546
     13 O2          3.4006    0.8040    0.5094 O.2       1 <0>        -0.9250
     14 C8          0.9141    1.3807    0.3102 C.ar      1 <0>        -0.6767
     15 C9          1.1594    2.5220   -0.4302 C.ar      1 <0>        -0.0039
     16 C10         0.1899    3.5019   -0.5318 C.ar      1 <0>        -0.1324
     17 C11        -1.0262    3.3403    0.1078 C.ar      1 <0>         0.0185
     18 C12        -1.2711    2.1978    0.8488 C.ar      1 <0>        -0.1319
     19 C13        -0.3029    1.2161    0.9449 C.ar      1 <0>        -0.0132
     20 Cl1        -2.2442    4.5708   -0.0188 Cl        1 <0>        -0.0517
     21 C14         4.4724    0.0407   -1.1845 C.3       1 <0>         0.0579
     22 C15         5.8520   -0.6196   -1.2240 C.3       1 <0>        -0.1871
     23 C16         5.0553   -0.5897    0.0819 C.3       1 <0>        -0.1569
     24 O3          4.4212    1.4674   -1.2478 O.3       1 <0>        -0.3117
     25 C17         5.4307    2.1417   -0.6656 C.2       1 <0>         0.6729
     26 O4          6.3324    1.5353   -0.1217 O.2       1 <0>        -0.5638
     27 N2          5.4411    3.4893   -0.6861 N.am      1 <0>        -0.5999
     28 C18         4.3012    4.2449   -1.2272 C.3       1 <0>         0.1182
     29 C19         3.8793    5.2955   -0.1946 C.3       1 <0>         0.0384
     30 N3          5.0449    6.1096    0.1752 N.3       1 <0>        -0.5262
     31 C20         6.0807    5.2939    0.8231 C.3       1 <0>         0.0359
     32 C21         6.5902    4.2433   -0.1623 C.3       1 <0>         0.1361
     33 C22         4.6499    7.2361    1.0314 C.3       1 <0>         0.0539
     34 C23         5.8318    8.1945    1.1906 C.3       1 <0>         0.0791
     35 O5          6.1482    8.7752   -0.0762 O.3       1 <0>        -0.5591
     36 H3         -1.7745   -1.8102   -1.5076 H         1 <0>         0.0557
     37 H4         -0.9709   -3.3107   -0.9872 H         1 <0>         0.0643
     38 H5         -1.9722   -2.3925    0.1628 H         1 <0>         0.0625
     39 H6         -0.3505   -0.4846   -0.0187 H         1 <0>         0.0736
     40 H7          0.3935   -1.9641    0.6339 H         1 <0>         0.1148
     41 H8          1.7748   -3.4023   -0.7836 H         1 <0>         0.0738
     42 H9          0.5668   -3.4943   -2.0885 H         1 <0>         0.0811
     43 H10         2.8338   -3.9207   -2.9762 H         1 <0>         0.0733
     44 H11         2.1787   -2.4051   -3.6404 H         1 <0>         0.0677
     45 H12         4.0749   -2.6157   -1.2573 H         1 <0>         0.0769
     46 H13         4.5415   -2.1351   -2.9070 H         1 <0>         0.0867
     47 H14         2.1089    2.6482   -0.9292 H         1 <0>         0.1463
     48 H15         0.3817    4.3936   -1.1100 H         1 <0>         0.1444
     49 H16        -2.2201    2.0713    1.3485 H         1 <0>         0.1453
     50 H17        -0.4957    0.3221    1.5194 H         1 <0>         0.1547
     51 H18         5.9376   -1.5761   -1.7396 H         1 <0>         0.0991
     52 H19         6.7210    0.0342   -1.2985 H         1 <0>         0.1205
     53 H20         5.4001    0.0837    0.8665 H         1 <0>         0.1323
     54 H21         4.6167   -1.5266    0.4254 H         1 <0>         0.0816
     55 H22         4.5959    4.7391   -2.1530 H         1 <0>         0.0797
     56 H23         3.4702    3.5662   -1.4196 H         1 <0>         0.0877
     57 H24         3.1086    5.9368   -0.6221 H         1 <0>         0.0885
     58 H25         3.4877    4.7971    0.6922 H         1 <0>         0.0403
     59 H26         6.9065    5.9341    1.1335 H         1 <0>         0.0916
     60 H27         5.6584    4.7956    1.6956 H         1 <0>         0.0403
     61 H28         7.2718    3.5636    0.3491 H         1 <0>         0.1001
     62 H29         7.1091    4.7374   -0.9837 H         1 <0>         0.0786
     63 H30         3.8131    7.7640    0.5741 H         1 <0>         0.0848
     64 H31         4.3516    6.8612    2.0105 H         1 <0>         0.0488
     65 H32         5.5681    8.9826    1.8959 H         1 <0>         0.0491
     66 H33         6.6963    7.6463    1.5651 H         1 <0>         0.0465
     67 H34         6.8900    9.3951   -0.0504 H         1 <0>         0.3760
@<TRIPOS>BOND
     1    1    2 1
     2    1   36 1
     3    1   37 1
     4    1   38 1
     5    2    3 1
     6    2   39 1
     7    2   40 1
     8    3    4 1
     9    3   10 1
    10    3    5 1
    11    5    6 1
    12    5   41 1
    13    5   42 1
    14    6    7 1
    15    6   43 1
    16    6   44 1
    17    7    8 1
    18    7   45 1
    19    7   46 1
    20    8    9 1
    21    8   10 1
    22    8   21 1
    23   10   11 1
    24   11   12 2
    25   11   13 2
    26   11   14 1
    27   14   19 ar
    28   14   15 ar
    29   15   16 ar
    30   15   47 1
    31   16   17 ar
    32   16   48 1
    33   17   18 ar
    34   17   20 1
    35   18   19 ar
    36   18   49 1
    37   19   50 1
    38   21   23 1
    39   21   22 1
    40   21   24 1
    41   22   23 1
    42   22   51 1
    43   22   52 1
    44   23   53 1
    45   23   54 1
    46   24   25 1
    47   25   26 2
    48   25   27 am
    49   27   32 1
    50   27   28 1
    51   28   29 1
    52   28   55 1
    53   28   56 1
    54   29   30 1
    55   29   57 1
    56   29   58 1
    57   30   31 1
    58   30   33 1
    59   31   32 1
    60   31   59 1
    61   31   60 1
    62   32   61 1
    63   32   62 1
    64   33   34 1
    65   33   63 1
    66   33   64 1
    67   34   35 1
    68   34   65 1
    69   34   66 1
    70   35   67 1
@<TRIPOS>MOLECULE
CHEMBL513868
   37    40     0     0     0
SMALL
USER_CHARGES

@<TRIPOS>ATOM
      1 C1          0.7978    0.0556    1.1925 C.ar      1 <0>        -0.0915
      2 C2          1.9864    0.7595    1.1662 C.ar      1 <0>        -0.1354
      3 C3          2.3799    1.4120    0.0067 C.ar      1 <0>         0.1054
      4 C4          1.5782    1.3561   -1.1245 C.ar      1 <0>        -0.1076
      5 C5          0.3899    0.6507   -1.0935 C.ar      1 <0>        -0.0152
      6 C6          0.0002    0.0008    0.0648 C.ar      1 <0>        -0.1126
      7 Cl1        -0.6145    0.5802   -2.5077 Cl        1 <0>        -0.0592
      8 O1          3.5483    2.1052   -0.0209 O.3       1 <0>        -0.2538
      9 C7          4.7089    1.4033    0.0689 C.ar      1 <0>         0.1284
     10 C8          4.6855    0.0202    0.0547 C.ar      1 <0>        -0.1418
     11 C9          5.8627   -0.7072    0.1457 C.ar      1 <0>        -0.0334
     12 C10         7.0738   -0.0599    0.2522 C.ar      1 <0>        -0.1007
     13 C11         7.1134    1.3346    0.2679 C.ar      1 <0>        -0.0957
     14 C12         5.9254    2.0755    0.1698 C.ar      1 <0>         0.0259
     15 O2          6.2632    3.3810    0.2031 O.3       1 <0>        -0.1896
     16 C13         7.5949    3.5286    0.3108 C.2       1 <0>         0.0071
     17 C14         8.1890    2.3286    0.3657 C.2       1 <0>        -0.2129
     18 C15         5.8165   -2.2134    0.1286 C.3       1 <0>         0.0018
     19 C16         5.9184   -2.7030   -1.2931 C.ar      1 <0>        -0.0776
     20 C17         6.9034   -3.6151   -1.6441 C.ar      1 <0>        -0.0898
     21 C18         6.9594   -4.0376   -2.9634 C.ar      1 <0>        -0.2333
     22 C19         6.0228   -3.5195   -3.8544 C.ar      1 <0>         0.3578
     23 O3          6.0362   -3.9025   -5.1561 O.3       1 <0>        -0.7060
     24 N1          5.1193   -2.6525   -3.4261 N.ar      1 <0>        -0.3553
     25 N2          5.0685   -2.2689   -2.2023 N.ar      1 <0>        -0.1943
     26 H1          0.4937   -0.4561    2.0936 H         1 <0>         0.1393
     27 H2          2.6087    0.8020    2.0478 H         1 <0>         0.1364
     28 H3          1.8822    1.8635   -2.0281 H         1 <0>         0.1442
     29 H4         -0.9286   -0.5500    0.0876 H         1 <0>         0.1379
     30 H5          3.7415   -0.4980   -0.0277 H         1 <0>         0.1439
     31 H6          7.9888   -0.6293    0.3236 H         1 <0>         0.1288
     32 H7          8.1104    4.4766    0.3563 H         1 <0>         0.2063
     33 H8          9.2475    2.1324    0.4519 H         1 <0>         0.1579
     34 H9          6.6496   -2.6091    0.7097 H         1 <0>         0.0782
     35 H10         4.8765   -2.5531    0.5633 H         1 <0>         0.0766
     36 H11         7.6056   -3.9847   -0.9116 H         1 <0>         0.1137
     37 H12         7.7063   -4.7461   -3.2900 H         1 <0>         0.1162
@<TRIPOS>BOND
     1    1    6 ar
     2    1    2 ar
     3    1   26 1
     4    2    3 ar
     5    2   27 1
     6    3    4 ar
     7    3    8 1
     8    4    5 ar
     9    4   28 1
    10    5    6 ar
    11    5    7 1
    12    6   29 1
    13    8    9 1
    14    9   14 ar
    15    9   10 ar
    16   10   11 ar
    17   10   30 1
    18   11   12 ar
    19   11   18 1
    20   12   13 ar
    21   12   31 1
    22   13   17 1
    23   13   14 ar
    24   14   15 1
    25   15   16 1
    26   16   17 2
    27   16   32 1
    28   17   33 1
    29   18   19 1
    30   18   34 1
    31   18   35 1
    32   19   25 ar
    33   19   20 ar
    34   20   21 ar
    35   20   36 1
    36   21   22 ar
    37   21   37 1
    38   22   23 1
    39   22   24 ar
    40   24   25 ar
@<TRIPOS>MOLECULE
CHEMBL513868
   38    41     0     0     0
SMALL
USER_CHARGES

@<TRIPOS>ATOM
      1 C1          0.7978    0.0556    1.1925 C.ar      1 <0>        -0.0887
      2 C2          1.9864    0.7595    1.1662 C.ar      1 <0>        -0.1348
      3 C3          2.3799    1.4120    0.0067 C.ar      1 <0>         0.1012
      4 C4          1.5782    1.3561   -1.1245 C.ar      1 <0>        -0.1141
      5 C5          0.3899    0.6507   -1.0935 C.ar      1 <0>        -0.0196
      6 C6          0.0002    0.0008    0.0648 C.ar      1 <0>        -0.1106
      7 Cl1        -0.6145    0.5802   -2.5077 Cl        1 <0>        -0.0555
      8 O1          3.5483    2.1052   -0.0209 O.3       1 <0>        -0.2502
      9 C7          4.7089    1.4033    0.0689 C.ar      1 <0>         0.1378
     10 C8          4.6855    0.0202    0.0547 C.ar      1 <0>        -0.1596
     11 C9          5.8627   -0.7072    0.1457 C.ar      1 <0>        -0.0498
     12 C10         7.0738   -0.0599    0.2522 C.ar      1 <0>        -0.0867
     13 C11         7.1134    1.3346    0.2679 C.ar      1 <0>        -0.0898
     14 C12         5.9254    2.0755    0.1698 C.ar      1 <0>         0.0324
     15 O2          6.2632    3.3810    0.2031 O.3       1 <0>        -0.1862
     16 C13         7.5949    3.5286    0.3108 C.2       1 <0>         0.0191
     17 C14         8.1890    2.3286    0.3657 C.2       1 <0>        -0.2158
     18 C15         5.8165   -2.2134    0.1286 C.3       1 <0>        -0.0117
     19 C16         5.9184   -2.7030   -1.2931 C.2       1 <0>         0.0592
     20 C17         5.8910   -4.0819   -1.5595 C.2       1 <0>        -0.0624
     21 C18         5.9850   -4.4928   -2.8588 C.2       1 <0>        -0.1831
     22 C19         6.1042   -3.5009   -3.8561 C.2       1 <0>         0.4758
     23 O3          6.1909   -3.8160   -5.0322 O.2       1 <0>        -0.5330
     24 N1          6.1209   -2.2032   -3.4964 N.am      1 <0>        -0.4463
     25 H1          6.2029   -1.5232   -4.1833 H         1 <0>         0.4402
     26 N2          6.0260   -1.8432   -2.2677 N.2       1 <0>        -0.2038
     27 H2          0.4937   -0.4561    2.0936 H         1 <0>         0.1429
     28 H3          2.6087    0.8020    2.0478 H         1 <0>         0.1391
     29 H4          1.8822    1.8635   -2.0281 H         1 <0>         0.1435
     30 H5         -0.9286   -0.5500    0.0876 H         1 <0>         0.1409
     31 H6          3.7415   -0.4980   -0.0277 H         1 <0>         0.1387
     32 H7          7.9888   -0.6293    0.3236 H         1 <0>         0.1304
     33 H8          8.1104    4.4766    0.3563 H         1 <0>         0.2108
     34 H9          9.2475    2.1324    0.4519 H         1 <0>         0.1617
     35 H10         6.6496   -2.6091    0.7097 H         1 <0>         0.1051
     36 H11         4.8765   -2.5531    0.5633 H         1 <0>         0.1024
     37 H12         5.7983   -4.7991   -0.7573 H         1 <0>         0.1555
     38 H13         5.9689   -5.5419   -3.1147 H         1 <0>         0.1650
@<TRIPOS>BOND
     1    1    6 ar
     2    1    2 ar
     3    1   27 1
     4    2    3 ar
     5    2   28 1
     6    3    4 ar
     7    3    8 1
     8    4    5 ar
     9    4   29 1
    10    5    6 ar
    11    5    7 1
    12    6   30 1
    13    8    9 1
    14    9   14 ar
    15    9   10 ar
    16   10   11 ar
    17   10   31 1
    18   11   12 ar
    19   11   18 1
    20   12   13 ar
    21   12   32 1
    22   13   17 1
    23   13   14 ar
    24   14   15 1
    25   15   16 1
    26   16   17 2
    27   16   33 1
    28   17   34 1
    29   18   19 1
    30   18   35 1
    31   18   36 1
    32   19   26 2
    33   19   20 1
    34   20   21 2
    35   20   37 1
    36   21   22 1
    37   21   38 1
    38   22   23 2
    39   22   24 am
    40   24   25 1
    41   24   26 1
@<TRIPOS>MOLECULE
CHEMBL358880
   35    36     0     0     0
SMALL
USER_CHARGES

@<TRIPOS>ATOM
      1 C1         -0.0187    1.5258    0.0104 C.3       1 <0>        -0.1533
      2 C2          0.0021   -0.0041    0.0020 C.3       1 <0>        -0.1219
      3 C3         -1.4333   -0.5336    0.0129 C.3       1 <0>        -0.1204
      4 C4         -1.4126   -2.0635    0.0045 C.3       1 <0>         0.0559
      5 O1         -2.7532   -2.5581    0.0146 O.3       1 <0>        -0.3106
      6 C5         -2.9130   -3.9081    0.0089 C.ar      1 <0>         0.1413
      7 C6         -1.8013   -4.7380   -0.0005 C.ar      1 <0>        -0.1929
      8 C7         -1.9632   -6.1093   -0.0063 C.ar      1 <0>        -0.0711
      9 C8         -3.2385   -6.6574   -0.0028 C.ar      1 <0>         0.0757
     10 C9         -4.3505   -5.8267    0.0066 C.ar      1 <0>        -0.0708
     11 C10        -4.1877   -4.4556    0.0181 C.ar      1 <0>        -0.1356
     12 N1         -3.4035   -8.0513   -0.0091 N.pl3     1 <0>        -0.4106
     13 C11        -2.8009   -8.9316   -0.8494 C.2       1 <0>         0.1858
     14 N2         -3.2032  -10.1362   -0.5478 N.2       1 <0>        -0.4850
     15 C12        -4.0634  -10.0732    0.4792 C.2       1 <0>        -0.0255
     16 C13        -4.1987   -8.7815    0.8355 C.2       1 <0>        -0.0207
     17 C14        -5.0612   -8.2420    1.9473 C.3       1 <0>        -0.0799
     18 H1          1.0039    1.9031    0.0027 H         1 <0>         0.0584
     19 H2         -0.5459    1.8868   -0.8726 H         1 <0>         0.0566
     20 H3         -0.5289    1.8773    0.9072 H         1 <0>         0.0565
     21 H4          0.5123   -0.3556   -0.8948 H         1 <0>         0.0654
     22 H5          0.5293   -0.3651    0.8851 H         1 <0>         0.0653
     23 H6         -1.9435   -0.1821    0.9097 H         1 <0>         0.0753
     24 H7         -1.9605   -0.1726   -0.8702 H         1 <0>         0.0754
     25 H8         -0.9024   -2.4150   -0.8923 H         1 <0>         0.0652
     26 H9         -0.8854   -2.4246    0.8875 H         1 <0>         0.0649
     27 H10        -0.8091   -4.3115   -0.0035 H         1 <0>         0.1388
     28 H11        -1.0977   -6.7553   -0.0139 H         1 <0>         0.1347
     29 H12        -5.3429   -6.2528    0.0093 H         1 <0>         0.1375
     30 H13        -5.0529   -3.8092    0.0298 H         1 <0>         0.1426
     31 H14        -2.1056   -8.6775   -1.6359 H         1 <0>         0.2063
     32 H15        -4.5584  -10.9134    0.9433 H         1 <0>         0.1726
     33 H16        -6.0543   -8.0155    1.5595 H         1 <0>         0.0739
     34 H17        -5.1414   -8.9870    2.7389 H         1 <0>         0.0843
     35 H18        -4.6115   -7.3334    2.3477 H         1 <0>         0.0658
@<TRIPOS>BOND
     1    1    2 1
     2    1   18 1
     3    1   19 1
     4    1   20 1
     5    2    3 1
     6    2   21 1
     7    2   22 1
     8    3    4 1
     9    3   23 1
    10    3   24 1
    11    4    5 1
    12    4   25 1
    13    4   26 1
    14    5    6 1
    15    6   11 ar
    16    6    7 ar
    17    7    8 ar
    18    7   27 1
    19    8    9 ar
    20    8   28 1
    21    9   10 ar
    22    9   12 1
    23   10   11 ar
    24   10   29 1
    25   11   30 1
    26   12   16 1
    27   12   13 1
    28   13   14 2
    29   13   31 1
    30   14   15 1
    31   15   16 2
    32   15   32 1
    33   16   17 1
    34   17   33 1
    35   17   34 1
    36   17   35 1
@<TRIPOS>MOLECULE
CHEMBL358880
   36    37     0     0     0
SMALL
USER_CHARGES

@<TRIPOS>ATOM
      1 C1         -0.0187    1.5258    0.0104 C.3       1 <0>        -0.1552
      2 C2          0.0021   -0.0041    0.0020 C.3       1 <0>        -0.1213
      3 C3          0.7182   -0.4975   -1.2568 C.3       1 <0>        -0.1223
      4 C4          0.7390   -2.0273   -1.2652 C.3       1 <0>         0.0528
      5 O1          1.4078   -2.4882   -2.4409 O.3       1 <0>        -0.3003
      6 C5          1.5137   -3.8337   -2.6034 C.ar      1 <0>         0.1782
      7 C6          0.9791   -4.6912   -1.6528 C.ar      1 <0>        -0.1949
      8 C7          1.0864   -6.0580   -1.8175 C.ar      1 <0>        -0.0485
      9 C8          1.7292   -6.5739   -2.9343 C.ar      1 <0>         0.0133
     10 C9          2.2639   -5.7156   -3.8852 C.ar      1 <0>        -0.0464
     11 C10         2.1512   -4.3491   -3.7226 C.ar      1 <0>        -0.1348
     12 N1          1.8389   -7.9632   -3.1019 N.pl3     1 <0>        -0.3460
     13 C11         2.2793   -8.8554   -2.1777 C.cat     1 <0>         0.2844
     14 N2          2.2378  -10.0506   -2.7008 N.pl3     1 <0>        -0.4694
     15 C12         1.7773   -9.9696   -3.9578 C.2       1 <0>        -0.0026
     16 C13         1.5162   -8.6761   -4.2272 C.2       1 <0>         0.0616
     17 C14         0.9759   -8.1191   -5.5191 C.3       1 <0>        -0.1030
     18 H1          1.0039    1.9031    0.0027 H         1 <0>         0.0579
     19 H2         -0.5459    1.8868   -0.8726 H         1 <0>         0.0579
     20 H3         -0.5289    1.8773    0.9072 H         1 <0>         0.0610
     21 H4          0.5293   -0.3651    0.8851 H         1 <0>         0.0659
     22 H5         -1.0205   -0.3814    0.0098 H         1 <0>         0.0660
     23 H6          0.1910   -0.1364   -2.1398 H         1 <0>         0.0783
     24 H7          1.7408   -0.1202   -1.2645 H         1 <0>         0.0783
     25 H8          1.2661   -2.3884   -0.3821 H         1 <0>         0.0706
     26 H9         -0.2836   -2.4046   -1.2575 H         1 <0>         0.0706
     27 H10         0.4794   -4.2897   -0.7837 H         1 <0>         0.1507
     28 H11         0.6706   -6.7254   -1.0772 H         1 <0>         0.1414
     29 H12         2.7641   -6.1167   -4.7544 H         1 <0>         0.1457
     30 H13         2.5633   -3.6812   -4.4647 H         1 <0>         0.1554
     31 H14         2.6089   -8.6161   -1.1774 H         1 <0>         0.2602
     32 H15         1.6358  -10.7987   -4.6352 H         1 <0>         0.2254
     33 H16         1.8046   -7.8664   -6.1806 H         1 <0>         0.1020
     34 H17         0.3421   -8.8646   -5.9993 H         1 <0>         0.1088
     35 H18         0.3903   -7.2234   -5.3118 H         1 <0>         0.0919
     36 H19         2.4996  -10.8692   -2.2511 H         1 <0>         0.4663
@<TRIPOS>BOND
     1    1    2 1
     2    1   18 1
     3    1   19 1
     4    1   20 1
     5    2    3 1
     6    2   21 1
     7    2   22 1
     8    3    4 1
     9    3   23 1
    10    3   24 1
    11    4    5 1
    12    4   25 1
    13    4   26 1
    14    5    6 1
    15    6   11 ar
    16    6    7 ar
    17    7    8 ar
    18    7   27 1
    19    8    9 ar
    20    8   28 1
    21    9   10 ar
    22    9   12 1
    23   10   11 ar
    24   10   29 1
    25   11   30 1
    26   12   16 1
    27   12   13 1
    28   13   14 2
    29   13   31 1
    30   14   15 1
    31   14   36 1
    32   15   16 2
    33   15   32 1
    34   16   17 1
    35   17   33 1
    36   17   34 1
    37   17   35 1
@<TRIPOS>MOLECULE
CHEMBL470996
   63    68     0     0     0
SMALL
USER_CHARGES

@<TRIPOS>ATOM
      1 C1         -1.3025    2.0896    1.1592 C.3       1 <0>         0.0456
      2 N1         -1.7314    1.4764    2.4187 N.pl3     1 <0>        -0.3992
      3 C2         -2.7698    1.8683    3.1880 C.cat     1 <0>         0.2916
      4 N2         -2.8403    1.0825    4.2274 N.pl3     1 <0>        -0.4719
      5 C3         -1.8595    0.1701    4.1597 C.2       1 <0>         0.0197
      6 C4         -1.1580    0.3956    3.0324 C.2       1 <0>         0.0706
      7 C5          0.0318   -0.3890    2.5427 C.3       1 <0>         0.2915
      8 C6          1.2448    0.5047    2.5118 C.ar      1 <0>        -0.1360
      9 C7          1.3595    1.5453    3.4146 C.ar      1 <0>        -0.1010
     10 C8          2.4717    2.3653    3.3868 C.ar      1 <0>        -0.0979
     11 C9          3.4704    2.1446    2.4551 C.ar      1 <0>        -0.0217
     12 C10         3.3550    1.1031    1.5517 C.ar      1 <0>        -0.0960
     13 C11         2.2449    0.2803    1.5842 C.ar      1 <0>        -0.0926
     14 Cl1         4.8674    3.1746    2.4191 Cl        1 <0>        -0.0463
     15 C12         0.2857   -1.5485    3.4712 C.ar      1 <0>        -0.1386
     16 C13        -0.0889   -2.8295    3.0911 C.ar      1 <0>        -0.0325
     17 C14         0.1347   -3.9036    3.9254 C.ar      1 <0>        -0.1636
     18 C15         0.7418   -3.7034    5.1612 C.ar      1 <0>         0.2085
     19 C16         1.1191   -2.4039    5.5410 C.ar      1 <0>        -0.1168
     20 C17         0.8882   -1.3307    4.6788 C.ar      1 <0>        -0.0372
     21 C18         1.7609   -2.2038    6.8513 C.2       1 <0>         0.0489
     22 C19         1.9647   -3.3102    7.6536 C.2       1 <0>        -0.1894
     23 C20         1.5620   -4.5816    7.2100 C.2       1 <0>         0.5316
     24 O1          1.7488   -5.5475    7.9306 O.2       1 <0>        -0.5178
     25 N3          0.9770   -4.7623    6.0142 N.am      1 <0>        -0.5220
     26 C21         0.5794   -6.1124    5.6075 C.3       1 <0>         0.0572
     27 C22         2.1757   -0.8584    7.2952 C.ar      1 <0>        -0.0609
     28 C23         3.3016   -0.2571    6.7527 C.ar      1 <0>        -0.0837
     29 C24         3.6970    1.0087    7.1661 C.ar      1 <0>        -0.1167
     30 C25         2.9940    1.6939    8.1115 C.ar      1 <0>        -0.0897
     31 C26         1.8462    1.1233    8.6881 C.ar      1 <0>        -0.0520
     32 C27         1.4245   -0.1642    8.2760 C.ar      1 <0>        -0.0299
     33 C28         0.2770   -0.7300    8.8481 C.ar      1 <0>        -0.1147
     34 C29        -0.4213   -0.0342    9.7887 C.ar      1 <0>        -0.1059
     35 C30        -0.0115    1.2348   10.1915 C.ar      1 <0>        -0.1150
     36 C31         1.1044    1.8101    9.6650 C.ar      1 <0>        -0.1012
     37 N4         -0.2383   -0.8949    1.1902 N.3       1 <0>        -0.8274
     38 H1         -1.8232    1.6144    0.3279 H         1 <0>         0.1169
     39 H2         -1.5379    3.1538    1.1746 H         1 <0>         0.1217
     40 H3         -0.2274    1.9570    1.0380 H         1 <0>         0.1125
     41 H4         -3.4318    2.6953    2.9780 H         1 <0>         0.2641
     42 H5         -1.6683   -0.6110    4.8806 H         1 <0>         0.2200
     43 H6          0.5797    1.7177    4.1417 H         1 <0>         0.1231
     44 H7          2.5610    3.1784    4.0920 H         1 <0>         0.1398
     45 H8          4.1341    0.9305    0.8240 H         1 <0>         0.1439
     46 H9          2.1570   -0.5358    0.8822 H         1 <0>         0.1354
     47 H10        -0.5605   -2.9864    2.1323 H         1 <0>         0.1509
     48 H11        -0.1605   -4.8969    3.6211 H         1 <0>         0.1455
     49 H12         1.1807   -0.3316    4.9664 H         1 <0>         0.1367
     50 H13         2.4331   -3.1982    8.6203 H         1 <0>         0.1600
     51 H14         1.4030   -6.5892    5.0761 H         1 <0>         0.0786
     52 H15         0.3290   -6.6992    6.4913 H         1 <0>         0.0981
     53 H16        -0.2898   -6.0533    4.9524 H         1 <0>         0.0871
     54 H17         3.8767   -0.7783    6.0018 H         1 <0>         0.1262
     55 H18         4.5775    1.4578    6.7308 H         1 <0>         0.1296
     56 H19         3.3196    2.6769    8.4184 H         1 <0>         0.1315
     57 H20        -0.0523   -1.7127    8.5446 H         1 <0>         0.1239
     58 H21        -1.3052   -0.4726   10.2280 H         1 <0>         0.1258
     59 H22        -0.5824    1.7662   10.9386 H         1 <0>         0.1271
     60 H23         1.4113    2.7942    9.9873 H         1 <0>         0.1310
     61 H24        -0.4751   -0.1410    0.5628 H         1 <0>         0.3474
     62 H25         0.5452   -1.4249    0.8392 H         1 <0>         0.3688
     63 H26        -3.4981    1.1480    4.9373 H         1 <0>         0.4668
@<TRIPOS>BOND
     1    1    2 1
     2    1   38 1
     3    1   39 1
     4    1   40 1
     5    2    6 1
     6    2    3 1
     7    3    4 2
     8    3   41 1
     9    4    5 1
    10    4   63 1
    11    5    6 2
    12    5   42 1
    13    6    7 1
    14    7    8 1
    15    7   15 1
    16    7   37 1
    17    8   13 ar
    18    8    9 ar
    19    9   10 ar
    20    9   43 1
    21   10   11 ar
    22   10   44 1
    23   11   12 ar
    24   11   14 1
    25   12   13 ar
    26   12   45 1
    27   13   46 1
    28   15   20 ar
    29   15   16 ar
    30   16   17 ar
    31   16   47 1
    32   17   18 ar
    33   17   48 1
    34   18   25 1
    35   18   19 ar
    36   19   20 ar
    37   19   21 1
    38   20   49 1
    39   21   22 2
    40   21   27 1
    41   22   23 1
    42   22   50 1
    43   23   24 2
    44   23   25 am
    45   25   26 1
    46   26   51 1
    47   26   52 1
    48   26   53 1
    49   27   32 ar
    50   27   28 ar
    51   28   29 ar
    52   28   54 1
    53   29   30 ar
    54   29   55 1
    55   30   31 ar
    56   30   56 1
    57   31   36 ar
    58   31   32 ar
    59   32   33 ar
    60   33   34 ar
    61   33   57 1
    62   34   35 ar
    63   34   58 1
    64   35   36 ar
    65   35   59 1
    66   36   60 1
    67   37   61 1
    68   37   62 1
@<TRIPOS>MOLECULE
CHEMBL470996
   62    67     0     0     0
SMALL
USER_CHARGES

@<TRIPOS>ATOM
      1 C1          2.2555   -1.6624    0.7662 C.3       1 <0>         0.0657
      2 N1          0.8207   -1.8199    0.5158 N.pl3     1 <0>        -0.4369
      3 C2          0.2553   -2.4555   -0.5329 C.2       1 <0>         0.1844
      4 N2         -1.0424   -2.3886   -0.4126 N.2       1 <0>        -0.4914
      5 C3         -1.3488   -1.7147    0.7059 C.2       1 <0>        -0.0113
      6 C4         -0.1972   -1.3553    1.3044 C.2       1 <0>        -0.0164
      7 C5         -0.0562   -0.5864    2.5928 C.3       1 <0>         0.2913
      8 C6         -1.4191   -0.1640    3.0774 C.ar      1 <0>        -0.1019
      9 C7         -2.2872   -1.1028    3.6029 C.ar      1 <0>        -0.0875
     10 C8         -3.5374   -0.7160    4.0476 C.ar      1 <0>        -0.1055
     11 C9         -3.9200    0.6110    3.9667 C.ar      1 <0>        -0.0292
     12 C10        -3.0508    1.5502    3.4406 C.ar      1 <0>        -0.1035
     13 C11        -1.7988    1.1631    3.0015 C.ar      1 <0>        -0.1033
     14 Cl1        -5.4903    1.0975    4.5244 Cl        1 <0>        -0.0648
     15 C12         0.5972   -1.4616    3.6311 C.ar      1 <0>        -0.1029
     16 C13         0.3308   -2.8235    3.6498 C.ar      1 <0>        -0.0505
     17 C14         0.9183   -3.6415    4.5907 C.ar      1 <0>        -0.1624
     18 C15         1.7873   -3.0983    5.5319 C.ar      1 <0>         0.1935
     19 C16         2.0535   -1.7185    5.5082 C.ar      1 <0>        -0.1160
     20 C17         1.4519   -0.9086    4.5435 C.ar      1 <0>        -0.0284
     21 C18         2.9749   -1.1544    6.5091 C.2       1 <0>         0.0590
     22 C19         3.5400   -2.0131    7.4326 C.2       1 <0>        -0.2030
     23 C20         3.2289   -3.3833    7.3979 C.2       1 <0>         0.5340
     24 O1          3.7359   -4.1273    8.2204 O.2       1 <0>        -0.5333
     25 N3          2.3885   -3.8961    6.4838 N.am      1 <0>        -0.5211
     26 C21         2.1034   -5.3330    6.4987 C.3       1 <0>         0.0607
     27 C22         3.2866    0.2884    6.5251 C.ar      1 <0>        -0.0573
     28 C23         4.1327    0.8336    5.5711 C.ar      1 <0>        -0.0855
     29 C24         4.4299    2.1905    5.5806 C.ar      1 <0>        -0.1167
     30 C25         3.9014    3.0219    6.5224 C.ar      1 <0>        -0.0919
     31 C26         3.0387    2.5128    7.5084 C.ar      1 <0>        -0.0513
     32 C27         2.7200    1.1330    7.5119 C.ar      1 <0>        -0.0291
     33 C28         1.8557    0.6274    8.4925 C.ar      1 <0>        -0.1089
     34 C29         1.3289    1.4683    9.4262 C.ar      1 <0>        -0.1075
     35 C30         1.6365    2.8269    9.4211 C.ar      1 <0>        -0.1135
     36 C31         2.4811    3.3501    8.4903 C.ar      1 <0>        -0.1040
     37 N4          0.7730    0.6044    2.3641 N.3       1 <0>        -0.8341
     38 H1          2.6068   -2.4813    1.3940 H         1 <0>         0.0710
     39 H2          2.7933   -1.6750   -0.1819 H         1 <0>         0.0830
     40 H3          2.4341   -0.7139    1.2726 H         1 <0>         0.1074
     41 H4          0.7887   -2.9387   -1.3382 H         1 <0>         0.2049
     42 H5         -2.3445   -1.5012    1.0656 H         1 <0>         0.1649
     43 H6         -1.9885   -2.1388    3.6657 H         1 <0>         0.1335
     44 H7         -4.2156   -1.4497    4.4578 H         1 <0>         0.1366
     45 H8         -3.3491    2.5862    3.3769 H         1 <0>         0.1361
     46 H9         -1.1184    1.8969    2.5953 H         1 <0>         0.1293
     47 H10        -0.3438   -3.2464    2.9201 H         1 <0>         0.1325
     48 H11         0.7047   -4.7001    4.5977 H         1 <0>         0.1396
     49 H12         1.6578    0.1513    4.5204 H         1 <0>         0.1369
     50 H13         4.2202   -1.6319    8.1799 H         1 <0>         0.1566
     51 H14         2.8231   -5.8528    5.8663 H         1 <0>         0.0743
     52 H15         2.1792   -5.7080    7.5193 H         1 <0>         0.0948
     53 H16         1.0957   -5.5074    6.1214 H         1 <0>         0.0849
     54 H17         4.5651    0.1969    4.8134 H         1 <0>         0.1277
     55 H18         5.0919    2.5938    4.8285 H         1 <0>         0.1293
     56 H19         4.1463    4.0737    6.5114 H         1 <0>         0.1300
     57 H20         1.6081   -0.4237    8.5077 H         1 <0>         0.1236
     58 H21         0.6631    1.0761   10.1807 H         1 <0>         0.1247
     59 H22         1.2058    3.4729   10.1718 H         1 <0>         0.1254
     60 H23         2.7119    4.4051    8.4988 H         1 <0>         0.1297
     61 H24         0.3897    1.1757    1.6260 H         1 <0>         0.3534
     62 H25         0.8826    1.1373    3.2139 H         1 <0>         0.3507
@<TRIPOS>BOND
     1    1    2 1
     2    1   38 1
     3    1   39 1
     4    1   40 1
     5    2    6 1
     6    2    3 1
     7    3    4 2
     8    3   41 1
     9    4    5 1
    10    5    6 2
    11    5   42 1
    12    6    7 1
    13    7    8 1
    14    7   15 1
    15    7   37 1
    16    8   13 ar
    17    8    9 ar
    18    9   10 ar
    19    9   43 1
    20   10   11 ar
    21   10   44 1
    22   11   12 ar
    23   11   14 1
    24   12   13 ar
    25   12   45 1
    26   13   46 1
    27   15   20 ar
    28   15   16 ar
    29   16   17 ar
    30   16   47 1
    31   17   18 ar
    32   17   48 1
    33   18   25 1
    34   18   19 ar
    35   19   20 ar
    36   19   21 1
    37   20   49 1
    38   21   22 2
    39   21   27 1
    40   22   23 1
    41   22   50 1
    42   23   24 2
    43   23   25 am
    44   25   26 1
    45   26   51 1
    46   26   52 1
    47   26   53 1
    48   27   32 ar
    49   27   28 ar
    50   28   29 ar
    51   28   54 1
    52   29   30 ar
    53   29   55 1
    54   30   31 ar
    55   30   56 1
    56   31   36 ar
    57   31   32 ar
    58   32   33 ar
    59   33   34 ar
    60   33   57 1
    61   34   35 ar
    62   34   58 1
    63   35   36 ar
    64   35   59 1
    65   36   60 1
    66   37   61 1
    67   37   62 1
@<TRIPOS>MOLECULE
CHEMBL1484
   65    67     0     0     0
SMALL
USER_CHARGES

@<TRIPOS>ATOM
      1 C1          2.8900    2.1498    0.6631 C.3       1 <0>        -0.1220
      2 C2          2.4585    0.7160    0.4923 C.2       1 <0>         0.2445
      3 C3          1.1844    0.4407    0.1640 C.2       1 <0>        -0.2588
      4 C4          0.7120   -0.9729   -0.0244 C.3       1 <0>         0.0892
      5 C5          1.6916   -1.9449    0.5695 C.2       1 <0>        -0.2538
      6 C6          2.9456   -1.5741    0.8808 C.2       1 <0>         0.2101
      7 N1          3.3698   -0.2894    0.6679 N.pl3     1 <0>        -0.6283
      8 C7          3.8972   -2.5855    1.4662 C.3       1 <0>        -0.1364
      9 C8          1.2858   -3.2788    0.8059 C.2       1 <0>         0.5475
     10 O1          0.5729   -3.5384    1.7573 O.2       1 <0>        -0.4717
     11 O2          1.6891   -4.2638   -0.0237 O.3       1 <0>        -0.3659
     12 C9          1.3353   -5.6007    0.3363 C.3       1 <0>         0.0259
     13 C10         1.9762   -6.5806   -0.6485 C.3       1 <0>        -0.0019
     14 N2          1.3882   -6.3905   -1.9812 N.4       1 <0>        -0.3874
     15 C11        -0.0342   -6.7559   -1.9454 C.3       1 <0>        -0.0608
     16 C12         2.0884   -7.2427   -2.9514 C.3       1 <0>         0.0443
     17 C13         1.5729   -6.9538   -4.3378 C.ar      1 <0>        -0.1652
     18 C14         0.5380   -7.7061   -4.8611 C.ar      1 <0>        -0.0947
     19 C15         0.0651   -7.4411   -6.1327 C.ar      1 <0>        -0.1117
     20 C16         0.6269   -6.4234   -6.8808 C.ar      1 <0>        -0.0791
     21 C17         1.6612   -5.6706   -6.3572 C.ar      1 <0>        -0.1122
     22 C18         2.1312   -5.9328   -5.0839 C.ar      1 <0>        -0.0953
     23 C19         0.5646   -1.2546   -1.4975 C.ar      1 <0>        -0.0713
     24 C20         1.6381   -1.0660   -2.3481 C.ar      1 <0>        -0.0517
     25 C21         1.5030   -1.3244   -3.6992 C.ar      1 <0>        -0.1160
     26 C22         0.2944   -1.7719   -4.1999 C.ar      1 <0>        -0.0581
     27 C23        -0.7784   -1.9613   -3.3494 C.ar      1 <0>        -0.0471
     28 C24        -0.6420   -1.7070   -1.9973 C.ar      1 <0>        -0.0455
     29 N3         -2.0724   -2.4399   -3.8856 N.pl3     1 <0>         0.0296
     30 O3         -2.1650   -2.7559   -5.0489 O.2       1 <0>        -0.1541
     31 O4         -3.0367   -2.5148   -3.1603 O.3       1 <0>        -0.1529
     32 C25         0.2688    1.5048   -0.0072 C.2       1 <0>         0.5150
     33 O5          0.6374    2.6547    0.1426 O.2       1 <0>        -0.5106
     34 O6         -1.0138    1.2448   -0.3368 O.3       1 <0>        -0.3530
     35 C26        -1.8836    2.3677   -0.4938 C.3       1 <0>         0.0353
     36 H1          3.9483    2.1824    0.9220 H         1 <0>         0.0686
     37 H2          2.7271    2.6916   -0.2686 H         1 <0>         0.1064
     38 H3          2.3067    2.6124    1.4592 H         1 <0>         0.1094
     39 H4         -0.2556   -1.0959    0.4623 H         1 <0>         0.1021
     40 H5          4.3189   -0.0902    0.6449 H         1 <0>         0.4285
     41 H6          4.4796   -3.0421    0.6659 H         1 <0>         0.0976
     42 H7          4.5688   -2.0894    2.1668 H         1 <0>         0.0936
     43 H8          3.3314   -3.3564    1.9892 H         1 <0>         0.0842
     44 H9          1.6927   -5.8123    1.3440 H         1 <0>         0.1167
     45 H10         0.2513   -5.7106    0.3047 H         1 <0>         0.0952
     46 H11         3.0498   -6.3983   -0.6957 H         1 <0>         0.1434
     47 H12         1.7955   -7.6022   -0.3140 H         1 <0>         0.1530
     48 H13        -0.5630   -6.0914   -1.2621 H         1 <0>         0.1215
     49 H14        -0.4587   -6.6618   -2.9449 H         1 <0>         0.1273
     50 H15        -0.1364   -7.7856   -1.6027 H         1 <0>         0.1287
     51 H16         3.1579   -7.0362   -2.9111 H         1 <0>         0.1374
     52 H17         1.9113   -8.2906   -2.7090 H         1 <0>         0.1378
     53 H18         0.0991   -8.5011   -4.2765 H         1 <0>         0.1310
     54 H19        -0.7430   -8.0293   -6.5418 H         1 <0>         0.1370
     55 H20         0.2580   -6.2168   -7.8746 H         1 <0>         0.1371
     56 H21         2.1004   -4.8757   -6.9418 H         1 <0>         0.1355
     57 H22         2.9368   -5.3422   -4.6733 H         1 <0>         0.1285
     58 H23         2.5821   -0.7164   -1.9570 H         1 <0>         0.1341
     59 H24         2.3413   -1.1764   -4.3638 H         1 <0>         0.1483
     60 H25         0.1887   -1.9731   -5.2557 H         1 <0>         0.1530
     61 H26        -1.4792   -1.8585   -1.3321 H         1 <0>         0.1527
     62 H27        -2.8822    2.0196   -0.7579 H         1 <0>         0.1031
     63 H28        -1.9289    2.9257    0.4415 H         1 <0>         0.0639
     64 H29        -1.5032    3.0142   -1.2846 H         1 <0>         0.0609
     65 H30         1.4803   -5.4237   -2.2546 H         1 <0>         0.4278
@<TRIPOS>BOND
     1    1    2 1
     2    1   36 1
     3    1   37 1
     4    1   38 1
     5    2    7 1
     6    2    3 2
     7    3    4 1
     8    3   32 1
     9    4    5 1
    10    4   23 1
    11    4   39 1
    12    5    6 2
    13    5    9 1
    14    6    7 1
    15    6    8 1
    16    7   40 1
    17    8   41 1
    18    8   42 1
    19    8   43 1
    20    9   10 2
    21    9   11 1
    22   11   12 1
    23   12   13 1
    24   12   44 1
    25   12   45 1
    26   13   14 1
    27   13   46 1
    28   13   47 1
    29   14   15 1
    30   14   16 1
    31   14   65 1
    32   15   48 1
    33   15   49 1
    34   15   50 1
    35   16   17 1
    36   16   51 1
    37   16   52 1
    38   17   22 ar
    39   17   18 ar
    40   18   19 ar
    41   18   53 1
    42   19   20 ar
    43   19   54 1
    44   20   21 ar
    45   20   55 1
    46   21   22 ar
    47   21   56 1
    48   22   57 1
    49   23   28 ar
    50   23   24 ar
    51   24   25 ar
    52   24   58 1
    53   25   26 ar
    54   25   59 1
    55   26   27 ar
    56   26   60 1
    57   27   28 ar
    58   27   29 1
    59   28   61 1
    60   29   30 2
    61   29   31 1
    62   32   33 2
    63   32   34 1
    64   34   35 1
    65   35   62 1
    66   35   63 1
    67   35   64 1
@<TRIPOS>MOLECULE
CHEMBL1484
   64    66     0     0     0
SMALL
USER_CHARGES

@<TRIPOS>ATOM
      1 C1          2.7363    1.9668   -0.3856 C.3       1 <0>        -0.1179
      2 C2          2.3201    0.5185   -0.3747 C.2       1 <0>         0.2452
      3 C3          1.0214    0.1998   -0.5118 C.2       1 <0>        -0.2636
      4 C4          0.5619   -1.2306   -0.5149 C.3       1 <0>         0.0878
      5 C5          1.6312   -2.1340    0.0305 C.2       1 <0>        -0.2249
      6 C6          2.9056   -1.7220    0.1450 C.2       1 <0>         0.1872
      7 N1          3.2694   -0.4563   -0.2309 N.pl3     1 <0>        -0.6297
      8 C7          3.9469   -2.6659    0.6890 C.3       1 <0>        -0.1300
      9 C8          1.2897   -3.4464    0.4316 C.2       1 <0>         0.5292
     10 O1          0.6733   -3.6257    1.4653 O.2       1 <0>        -0.4982
     11 O2          1.6475   -4.5000   -0.3321 O.3       1 <0>        -0.3274
     12 C9          1.3695   -5.8019    0.1874 C.3       1 <0>         0.0692
     13 C10         1.9511   -6.8605   -0.7517 C.3       1 <0>         0.0548
     14 N2          1.2505   -6.8087   -2.0418 N.3       1 <0>        -0.5288
     15 C11        -0.0769   -7.4305   -1.9454 C.3       1 <0>         0.0147
     16 C12         2.0508   -7.4377   -3.1011 C.3       1 <0>         0.0948
     17 C13         1.4926   -7.0539   -4.4473 C.ar      1 <0>        -0.0786
     18 C14         0.4931   -7.8154   -5.0236 C.ar      1 <0>        -0.1144
     19 C15        -0.0189   -7.4634   -6.2584 C.ar      1 <0>        -0.1185
     20 C16         0.4682   -6.3497   -6.9167 C.ar      1 <0>        -0.1156
     21 C17         1.4670   -5.5878   -6.3400 C.ar      1 <0>        -0.1215
     22 C18         1.9761   -5.9373   -5.1032 C.ar      1 <0>        -0.0966
     23 C19         0.2357   -1.6439   -1.9269 C.ar      1 <0>        -0.0701
     24 C20         1.1866   -1.5145   -2.9222 C.ar      1 <0>        -0.0479
     25 C21         0.8874   -1.8936   -4.2172 C.ar      1 <0>        -0.1143
     26 C22        -0.3626   -2.4025   -4.5173 C.ar      1 <0>        -0.0504
     27 C23        -1.3128   -2.5327   -3.5221 C.ar      1 <0>        -0.0414
     28 C24        -1.0122   -2.1575   -2.2258 C.ar      1 <0>        -0.0378
     29 N3         -2.6513   -3.0770   -3.8435 N.pl3     1 <0>         0.0358
     30 O3         -2.8832   -3.4948   -4.9540 O.2       1 <0>        -0.1590
     31 O4         -3.5125   -3.1039   -2.9954 O.3       1 <0>        -0.1614
     32 C25         0.0670    1.2334   -0.6557 C.2       1 <0>         0.5196
     33 O5          0.4248    2.3964   -0.6546 O.2       1 <0>        -0.5202
     34 O6         -1.2406    0.9298   -0.7943 O.3       1 <0>        -0.3500
     35 C26        -2.1492    2.0237   -0.9351 C.3       1 <0>         0.0366
     36 H1          3.8178    2.0350   -0.2683 H         1 <0>         0.0650
     37 H2          2.4441    2.4217   -1.3320 H         1 <0>         0.1035
     38 H3          2.2480    2.4914    0.4357 H         1 <0>         0.1058
     39 H4         -0.3330   -1.3214    0.1007 H         1 <0>         0.0996
     40 H5          4.2030   -0.2487   -0.3927 H         1 <0>         0.4246
     41 H6          4.4424   -3.1756   -0.1373 H         1 <0>         0.0966
     42 H7          4.6833   -2.1030    1.2626 H         1 <0>         0.0857
     43 H8          3.4682   -3.4017    1.3351 H         1 <0>         0.0839
     44 H9          1.8216   -5.9036    1.1740 H         1 <0>         0.0720
     45 H10         0.2910   -5.9390    0.2660 H         1 <0>         0.0694
     46 H11         3.0123   -6.6654   -0.9064 H         1 <0>         0.0862
     47 H12         1.8242   -7.8483   -0.3087 H         1 <0>         0.0621
     48 H13        -0.6976   -6.8570   -1.2570 H         1 <0>         0.0671
     49 H14        -0.5439   -7.4446   -2.9301 H         1 <0>         0.0753
     50 H15         0.0260   -8.4514   -1.5773 H         1 <0>         0.0292
     51 H16         3.0839   -7.0983   -3.0260 H         1 <0>         0.0828
     52 H17         2.0152   -8.5212   -2.9885 H         1 <0>         0.0444
     53 H18         0.1126   -8.6855   -4.5093 H         1 <0>         0.1167
     54 H19        -0.7993   -8.0587   -6.7091 H         1 <0>         0.1212
     55 H20         0.0687   -6.0751   -7.8818 H         1 <0>         0.1212
     56 H21         1.8478   -4.7178   -6.8544 H         1 <0>         0.1196
     57 H22         2.7538   -5.3399   -4.6509 H         1 <0>         0.1187
     58 H23         2.1630   -1.1170   -2.6878 H         1 <0>         0.1300
     59 H24         1.6300   -1.7919   -4.9948 H         1 <0>         0.1437
     60 H25        -0.5966   -2.6981   -5.5294 H         1 <0>         0.1492
     61 H26        -1.7535   -2.2626   -1.4475 H         1 <0>         0.1489
     62 H27        -3.1648    1.6416   -1.0378 H         1 <0>         0.1011
     63 H28        -2.0886    2.6621   -0.0537 H         1 <0>         0.0608
     64 H29        -1.8872    2.6019   -1.8212 H         1 <0>         0.0588
@<TRIPOS>BOND
     1    1    2 1
     2    1   36 1
     3    1   37 1
     4    1   38 1
     5    2    7 1
     6    2    3 2
     7    3    4 1
     8    3   32 1
     9    4    5 1
    10    4   23 1
    11    4   39 1
    12    5    6 2
    13    5    9 1
    14    6    7 1
    15    6    8 1
    16    7   40 1
    17    8   41 1
    18    8   42 1
    19    8   43 1
    20    9   10 2
    21    9   11 1
    22   11   12 1
    23   12   13 1
    24   12   44 1
    25   12   45 1
    26   13   14 1
    27   13   46 1
    28   13   47 1
    29   14   15 1
    30   14   16 1
    31   15   48 1
    32   15   49 1
    33   15   50 1
    34   16   17 1
    35   16   51 1
    36   16   52 1
    37   17   22 ar
    38   17   18 ar
    39   18   19 ar
    40   18   53 1
    41   19   20 ar
    42   19   54 1
    43   20   21 ar
    44   20   55 1
    45   21   22 ar
    46   21   56 1
    47   22   57 1
    48   23   28 ar
    49   23   24 ar
    50   24   25 ar
    51   24   58 1
    52   25   26 ar
    53   25   59 1
    54   26   27 ar
    55   26   60 1
    56   27   28 ar
    57   27   29 1
    58   28   61 1
    59   29   30 2
    60   29   31 1
    61   32   33 2
    62   32   34 1
    63   34   35 1
    64   35   62 1
    65   35   63 1
    66   35   64 1
@<TRIPOS>MOLECULE
CHEMBL1484
   65    67     0     0     0
SMALL
USER_CHARGES

@<TRIPOS>ATOM
      1 C1          0.4738    1.4849    0.5254 C.3       1 <0>        -0.1222
      2 C2          0.3977   -0.0170    0.4276 C.2       1 <0>         0.2445
      3 C3         -0.8014   -0.6158    0.3251 C.2       1 <0>        -0.2583
      4 C4         -0.9255   -2.1103    0.2343 C.3       1 <0>         0.0896
      5 C5          0.3958   -2.7335   -0.1163 C.2       1 <0>        -0.2576
      6 C6          1.5470   -2.0500    0.0039 C.2       1 <0>         0.2118
      7 N1          1.5504   -0.7541    0.4387 N.pl3     1 <0>        -0.6265
      8 C7          2.8501   -2.7187   -0.3507 C.3       1 <0>        -0.1400
      9 C8          0.4291   -4.0682   -0.5824 C.2       1 <0>         0.5428
     10 O1          0.0850   -4.3237   -1.7213 O.2       1 <0>        -0.4702
     11 O2          0.8426   -5.0585    0.2358 O.3       1 <0>        -0.3627
     12 C9          0.8508   -6.3828   -0.3012 C.3       1 <0>         0.0293
     13 C10         1.3456   -7.3624    0.7649 C.3       1 <0>        -0.0020
     14 N2          0.3581   -7.4458    1.8493 N.4       1 <0>        -0.3859
     15 C11         0.2965   -6.1592    2.5555 C.3       1 <0>        -0.0614
     16 C12         0.7524   -8.5026    2.7904 C.3       1 <0>         0.0435
     17 C13        -0.3213   -8.6719    3.8342 C.ar      1 <0>        -0.1652
     18 C14        -0.2753   -7.9297    4.9996 C.ar      1 <0>        -0.0979
     19 C15        -1.2602   -8.0850    5.9571 C.ar      1 <0>        -0.1127
     20 C16        -2.2912   -8.9820    5.7491 C.ar      1 <0>        -0.0791
     21 C17        -2.3376   -9.7234    4.5834 C.ar      1 <0>        -0.1110
     22 C18        -1.3551   -9.5651    3.6239 C.ar      1 <0>        -0.0937
     23 C19        -1.3926   -2.6509    1.5612 C.ar      1 <0>        -0.0740
     24 C20        -0.6364   -2.4386    2.6990 C.ar      1 <0>        -0.0529
     25 C21        -1.0648   -2.9344    3.9160 C.ar      1 <0>        -0.1182
     26 C22        -2.2497   -3.6422    3.9956 C.ar      1 <0>        -0.0598
     27 C23        -3.0062   -3.8536    2.8583 C.ar      1 <0>        -0.0471
     28 C24        -2.5798   -3.3540    1.6417 C.ar      1 <0>        -0.0443
     29 N3         -4.2745   -4.6119    2.9435 N.pl3     1 <0>         0.0291
     30 O3         -4.6488   -5.0463    4.0079 O.2       1 <0>        -0.1526
     31 O4         -4.9362   -4.7968    1.9487 O.3       1 <0>        -0.1521
     32 C25        -1.9714    0.1782    0.3026 C.2       1 <0>         0.5148
     33 O5         -1.8860    1.3898    0.3756 O.2       1 <0>        -0.5102
     34 O6         -3.1827   -0.4079    0.2000 O.3       1 <0>        -0.3535
     35 C26        -4.3216    0.4551    0.1832 C.3       1 <0>         0.0353
     36 H1          1.5172    1.7920    0.5965 H         1 <0>         0.0688
     37 H2          0.0236    1.9300   -0.3619 H         1 <0>         0.1098
     38 H3         -0.0645    1.8189    1.4124 H         1 <0>         0.1061
     39 H4         -1.6568   -2.3637   -0.5332 H         1 <0>         0.1021
     40 H5          2.3746   -0.3567    0.7607 H         1 <0>         0.4281
     41 H6          3.1093   -2.4849   -1.3832 H         1 <0>         0.0990
     42 H7          3.6362   -2.3571    0.3121 H         1 <0>         0.0917
     43 H8          2.7473   -3.7980   -0.2374 H         1 <0>         0.0885
     44 H9         -0.1589   -6.6574   -0.6063 H         1 <0>         0.0936
     45 H10         1.5144   -6.4204   -1.1652 H         1 <0>         0.1188
     46 H11         1.4794   -8.3478    0.3187 H         1 <0>         0.1533
     47 H12         2.2970   -7.0128    1.1660 H         1 <0>         0.1437
     48 H13        -0.1330   -5.4037    1.8976 H         1 <0>         0.1317
     49 H14        -0.3252   -6.2623    3.4449 H         1 <0>         0.1205
     50 H15         1.3020   -5.8569    2.8482 H         1 <0>         0.1256
     51 H16         0.8844   -9.4398    2.2497 H         1 <0>         0.1378
     52 H17         1.6894   -8.2272    3.2742 H         1 <0>         0.1369
     53 H18         0.5302   -7.2289    5.1621 H         1 <0>         0.1297
     54 H19        -1.2239   -7.5057    6.8679 H         1 <0>         0.1361
     55 H20        -3.0602   -9.1038    6.4976 H         1 <0>         0.1373
     56 H21        -3.1429  -10.4245    4.4210 H         1 <0>         0.1369
     57 H22        -1.3934  -10.1416    2.7115 H         1 <0>         0.1306
     58 H23         0.2893   -1.8857    2.6368 H         1 <0>         0.1351
     59 H24        -0.4737   -2.7692    4.8046 H         1 <0>         0.1491
     60 H25        -2.5841   -4.0302    4.9464 H         1 <0>         0.1539
     61 H26        -3.1727   -3.5160    0.7537 H         1 <0>         0.1545
     62 H27        -5.2291   -0.1426    0.0974 H         1 <0>         0.1033
     63 H28        -4.3531    1.0331    1.1067 H         1 <0>         0.0608
     64 H29        -4.2513    1.1329   -0.6675 H         1 <0>         0.0640
     65 H30        -0.5487   -7.6609    1.4626 H         1 <0>         0.4232
@<TRIPOS>BOND
     1    1    2 1
     2    1   36 1
     3    1   37 1
     4    1   38 1
     5    2    7 1
     6    2    3 2
     7    3    4 1
     8    3   32 1
     9    4    5 1
    10    4   23 1
    11    4   39 1
    12    5    6 2
    13    5    9 1
    14    6    7 1
    15    6    8 1
    16    7   40 1
    17    8   41 1
    18    8   42 1
    19    8   43 1
    20    9   10 2
    21    9   11 1
    22   11   12 1
    23   12   13 1
    24   12   44 1
    25   12   45 1
    26   13   14 1
    27   13   46 1
    28   13   47 1
    29   14   15 1
    30   14   16 1
    31   14   65 1
    32   15   48 1
    33   15   49 1
    34   15   50 1
    35   16   17 1
    36   16   51 1
    37   16   52 1
    38   17   22 ar
    39   17   18 ar
    40   18   19 ar
    41   18   53 1
    42   19   20 ar
    43   19   54 1
    44   20   21 ar
    45   20   55 1
    46   21   22 ar
    47   21   56 1
    48   22   57 1
    49   23   28 ar
    50   23   24 ar
    51   24   25 ar
    52   24   58 1
    53   25   26 ar
    54   25   59 1
    55   26   27 ar
    56   26   60 1
    57   27   28 ar
    58   27   29 1
    59   28   61 1
    60   29   30 2
    61   29   31 1
    62   32   33 2
    63   32   34 1
    64   34   35 1
    65   35   62 1
    66   35   63 1
    67   35   64 1
@<TRIPOS>MOLECULE
CHEMBL1484
   64    66     0     0     0
SMALL
USER_CHARGES

@<TRIPOS>ATOM
      1 C1         -0.3809    1.5870   -0.1877 C.3       1 <0>        -0.1178
      2 C2         -0.3176    0.0813   -0.1795 C.2       1 <0>         0.2449
      3 C3         -1.4559   -0.6314   -0.2381 C.2       1 <0>        -0.2629
      4 C4         -1.4411   -2.1336   -0.2234 C.3       1 <0>         0.0882
      5 C5         -0.0662   -2.6552   -0.5310 C.2       1 <0>        -0.2294
      6 C6          1.0165   -1.8615   -0.4607 C.2       1 <0>         0.1884
      7 N1          0.8980   -0.5435   -0.1181 N.pl3     1 <0>        -0.6280
      8 C7          2.3775   -2.4302   -0.7691 C.3       1 <0>        -0.1355
      9 C8          0.0926   -4.0105   -0.9022 C.2       1 <0>         0.5306
     10 O1         -0.2236   -4.3766   -2.0187 O.2       1 <0>        -0.4924
     11 O2          0.5947   -4.8978   -0.0180 O.3       1 <0>        -0.3424
     12 C9          0.7276   -6.2501   -0.4605 C.3       1 <0>         0.0673
     13 C10         1.3090   -7.1017    0.6698 C.3       1 <0>         0.0563
     14 N2          0.3405   -7.1804    1.7715 N.3       1 <0>        -0.5339
     15 C11         0.3291   -5.9362    2.5524 C.3       1 <0>         0.0192
     16 C12         0.6147   -8.3392    2.6317 C.3       1 <0>         0.0926
     17 C13        -0.5280   -8.5311    3.5953 C.ar      1 <0>        -0.0818
     18 C14        -0.5089   -7.8993    4.8247 C.ar      1 <0>        -0.1155
     19 C15        -1.5571   -8.0753    5.7086 C.ar      1 <0>        -0.1204
     20 C16        -2.6245   -8.8828    5.3629 C.ar      1 <0>        -0.1142
     21 C17        -2.6440   -9.5139    4.1332 C.ar      1 <0>        -0.1186
     22 C18        -1.5979   -9.3345    3.2476 C.ar      1 <0>        -0.0988
     23 C19        -1.8632   -2.6206    1.1389 C.ar      1 <0>        -0.0723
     24 C20        -1.1357   -2.2601    2.2579 C.ar      1 <0>        -0.0506
     25 C21        -1.5229   -2.7067    3.5073 C.ar      1 <0>        -0.1172
     26 C22        -2.6379   -3.5136    3.6381 C.ar      1 <0>        -0.0543
     27 C23        -3.3657   -3.8733    2.5195 C.ar      1 <0>        -0.0407
     28 C24        -2.9809   -3.4230    1.2702 C.ar      1 <0>        -0.0364
     29 N3         -4.5591   -4.7376    2.6594 N.pl3     1 <0>         0.0356
     30 O3         -4.8973   -5.1290    3.7522 O.2       1 <0>        -0.1584
     31 O4         -5.1958   -5.0522    1.6810 O.3       1 <0>        -0.1582
     32 C25        -2.6940    0.0476   -0.3149 C.2       1 <0>         0.5193
     33 O5         -2.7210    1.2641   -0.3273 O.2       1 <0>        -0.5196
     34 O6         -3.8455   -0.6536   -0.3744 O.3       1 <0>        -0.3502
     35 C26        -5.0590    0.0972   -0.4504 C.3       1 <0>         0.0365
     36 H1          0.6293    1.9934   -0.1398 H         1 <0>         0.0652
     37 H2         -0.8656    1.9253   -1.1035 H         1 <0>         0.1064
     38 H3         -0.9523    1.9313    0.6744 H         1 <0>         0.1032
     39 H4         -2.1419   -2.5067   -0.9702 H         1 <0>         0.1001
     40 H5          1.6804   -0.0501    0.1740 H         1 <0>         0.4242
     41 H6          2.6210   -2.2431   -1.8149 H         1 <0>         0.0927
     42 H7          3.1230   -1.9546   -0.1317 H         1 <0>         0.0863
     43 H8          2.3730   -3.5043   -0.5836 H         1 <0>         0.0920
     44 H9         -0.2515   -6.6384   -0.7412 H         1 <0>         0.0791
     45 H10         1.3937   -6.2866   -1.3225 H         1 <0>         0.0735
     46 H11         1.5187   -8.1047    0.2981 H         1 <0>         0.0964
     47 H12         2.2321   -6.6471    1.0293 H         1 <0>         0.0498
     48 H13        -0.0370   -5.1198    1.9297 H         1 <0>         0.0828
     49 H14        -0.3246   -6.0554    3.4164 H         1 <0>         0.0676
     50 H15         1.3404   -5.7100    2.8903 H         1 <0>         0.0236
     51 H16         0.7239   -9.2316    2.0153 H         1 <0>         0.0836
     52 H17         1.5354   -8.1680    3.1894 H         1 <0>         0.0435
     53 H18         0.3251   -7.2685    5.0947 H         1 <0>         0.1157
     54 H19        -1.5418   -7.5823    6.6693 H         1 <0>         0.1207
     55 H20        -3.4431   -9.0209    6.0538 H         1 <0>         0.1222
     56 H21        -3.4778  -10.1450    3.8633 H         1 <0>         0.1223
     57 H22        -1.6148   -9.8245    2.2853 H         1 <0>         0.1208
     58 H23        -0.2647   -1.6298    2.1558 H         1 <0>         0.1308
     59 H24        -0.9542   -2.4257    4.3814 H         1 <0>         0.1448
     60 H25        -2.9400   -3.8632    4.6142 H         1 <0>         0.1505
     61 H26        -3.5518   -3.7010    0.3965 H         1 <0>         0.1511
     62 H27        -5.9070   -0.5863   -0.4927 H         1 <0>         0.1015
     63 H28        -5.1485    0.7332    0.4303 H         1 <0>         0.0588
     64 H29        -5.0471    0.7173   -1.3467 H         1 <0>         0.0611
@<TRIPOS>BOND
     1    1    2 1
     2    1   36 1
     3    1   37 1
     4    1   38 1
     5    2    7 1
     6    2    3 2
     7    3    4 1
     8    3   32 1
     9    4    5 1
    10    4   23 1
    11    4   39 1
    12    5    6 2
    13    5    9 1
    14    6    7 1
    15    6    8 1
    16    7   40 1
    17    8   41 1
    18    8   42 1
    19    8   43 1
    20    9   10 2
    21    9   11 1
    22   11   12 1
    23   12   13 1
    24   12   44 1
    25   12   45 1
    26   13   14 1
    27   13   46 1
    28   13   47 1
    29   14   15 1
    30   14   16 1
    31   15   48 1
    32   15   49 1
    33   15   50 1
    34   16   17 1
    35   16   51 1
    36   16   52 1
    37   17   22 ar
    38   17   18 ar
    39   18   19 ar
    40   18   53 1
    41   19   20 ar
    42   19   54 1
    43   20   21 ar
    44   20   55 1
    45   21   22 ar
    46   21   56 1
    47   22   57 1
    48   23   28 ar
    49   23   24 ar
    50   24   25 ar
    51   24   58 1
    52   25   26 ar
    53   25   59 1
    54   26   27 ar
    55   26   60 1
    56   27   28 ar
    57   27   29 1
    58   28   61 1
    59   29   30 2
    60   29   31 1
    61   32   33 2
    62   32   34 1
    63   34   35 1
    64   35   62 1
    65   35   63 1
    66   35   64 1
@<TRIPOS>MOLECULE
CHEMBL519680
   51    55     0     0     0
SMALL
USER_CHARGES

@<TRIPOS>ATOM
      1 C1         -0.0118    1.4908    0.0701 C.3       1 <0>        -0.1050
      2 C2         -0.0013   -0.0154    0.0237 C.2       1 <0>         0.3041
      3 C3         -1.2062   -0.7214    0.1022 C.2       1 <0>        -0.4520
      4 C4         -1.1154   -2.2356    0.0489 C.3       1 <0>         0.2156
      5 N1          0.2377   -2.8043   -0.0804 N.2       1 <0>        -0.5859
      6 C5          1.2587   -1.9876   -0.1404 C.2       1 <0>         0.3835
      7 N2          1.1394   -0.6569   -0.0957 N.2       1 <0>        -0.6660
      8 C6          2.6175   -2.5682   -0.2700 C.ar      1 <0>        -0.0206
      9 C7          2.7846   -3.9507   -0.3310 C.ar      1 <0>        -0.0819
     10 C8          4.0511   -4.4853   -0.4516 C.ar      1 <0>        -0.1365
     11 C9          5.1537   -3.6520   -0.5115 C.ar      1 <0>        -0.1210
     12 C10         4.9938   -2.2792   -0.4514 C.ar      1 <0>        -0.1379
     13 C11         3.7315   -1.7333   -0.3371 C.ar      1 <0>        -0.0773
     14 C12        -1.9382   -2.7135   -1.1197 C.ar      1 <0>        -0.0460
     15 C13        -1.4173   -2.6598   -2.3991 C.ar      1 <0>        -0.0770
     16 C14        -2.1707   -3.0982   -3.4715 C.ar      1 <0>        -0.1651
     17 C15        -3.4477   -3.5914   -3.2641 C.ar      1 <0>         0.0718
     18 C16        -3.9684   -3.6447   -1.9823 C.ar      1 <0>        -0.1614
     19 C17        -3.2112   -3.2106   -0.9108 C.ar      1 <0>        -0.0508
     20 F1         -4.1854   -4.0198   -4.3118 F         1 <0>        -0.1536
     21 C18        -2.4177   -0.0732    0.2227 C.2       1 <0>         0.5343
     22 O1         -3.5457   -0.7843    0.4285 O.3       1 <0>        -0.6377
     23 N3         -2.4756    1.2904    0.1335 N.pl3     1 <0>        -0.7037
     24 C19        -2.9695    2.0417    1.2065 C.ar      1 <0>         0.1890
     25 C20        -3.4876    1.3928    2.3284 C.ar      1 <0>        -0.0995
     26 C21        -3.9739    2.1068    3.3849 C.ar      1 <0>        -0.1096
     27 C22        -3.9578    3.4993    3.3535 C.ar      1 <0>         0.0823
     28 C23        -3.4375    4.1643    2.2269 C.ar      1 <0>        -0.1387
     29 C24        -2.9365    3.4209    1.1522 C.ar      1 <0>        -0.1357
     30 C25        -3.5619    5.5927    2.4993 C.2       1 <0>         0.0636
     31 N4         -4.1045    5.7280    3.6756 N.2       1 <0>        -0.2576
     32 N5         -4.3627    4.4715    4.2330 N.pl3     1 <0>        -0.5152
     33 H1         -4.7641    4.3128    5.1017 H         1 <0>         0.4347
     34 H2          1.0132    1.8608    0.0931 H         1 <0>         0.0622
     35 H3         -0.5181    1.8780   -0.8141 H         1 <0>         0.0647
     36 H4         -0.5382    1.8231    0.9649 H         1 <0>         0.0798
     37 H5         -1.5651   -2.6343    0.9583 H         1 <0>         0.0533
     38 H6          1.9246   -4.6022   -0.2836 H         1 <0>         0.1325
     39 H7          4.1818   -5.5563   -0.4989 H         1 <0>         0.1174
     40 H8          6.1431   -4.0747   -0.6051 H         1 <0>         0.1143
     41 H9          5.8581   -1.6334   -0.4987 H         1 <0>         0.1175
     42 H10         3.6075   -0.6612   -0.2947 H         1 <0>         0.1349
     43 H11        -0.4212   -2.2748   -2.5607 H         1 <0>         0.1152
     44 H12        -1.7636   -3.0558   -4.4710 H         1 <0>         0.1216
     45 H13        -4.9646   -4.0288   -1.8194 H         1 <0>         0.1234
     46 H14        -3.6154   -3.2562    0.0896 H         1 <0>         0.1299
     47 H15        -2.1744    1.7369   -0.6733 H         1 <0>         0.4051
     48 H16        -3.5041    0.3134    2.3606 H         1 <0>         0.1455
     49 H17        -4.3722    1.5914    4.2463 H         1 <0>         0.1224
     50 H18        -2.5314    3.9220    0.2855 H         1 <0>         0.1256
     51 H19        -3.2580    6.3945    1.8427 H         1 <0>         0.1917
@<TRIPOS>BOND
     1    1    2 1
     2    1   34 1
     3    1   35 1
     4    1   36 1
     5    2    7 2
     6    2    3 1
     7    3    4 1
     8    3   21 2
     9    4    5 1
    10    4   14 1
    11    4   37 1
    12    5    6 2
    13    6    7 1
    14    6    8 1
    15    8   13 ar
    16    8    9 ar
    17    9   10 ar
    18    9   38 1
    19   10   11 ar
    20   10   39 1
    21   11   12 ar
    22   11   40 1
    23   12   13 ar
    24   12   41 1
    25   13   42 1
    26   14   19 ar
    27   14   15 ar
    28   15   16 ar
    29   15   43 1
    30   16   17 ar
    31   16   44 1
    32   17   18 ar
    33   17   20 1
    34   18   19 ar
    35   18   45 1
    36   19   46 1
    37   21   22 1
    38   21   23 1
    39   23   24 1
    40   23   47 1
    41   24   29 ar
    42   24   25 ar
    43   25   26 ar
    44   25   48 1
    45   26   27 ar
    46   26   49 1
    47   27   32 1
    48   27   28 ar
    49   28   29 ar
    50   28   30 1
    51   29   50 1
    52   30   31 2
    53   30   51 1
    54   31   32 1
    55   32   33 1
@<TRIPOS>MOLECULE
CHEMBL519680
   53    57     0     0     0
SMALL
USER_CHARGES

@<TRIPOS>ATOM
      1 C1         -0.0180    1.5023    0.0186 C.3       1 <0>        -0.1177
      2 C2          0.0020   -0.0044   -0.0083 C.2       1 <0>         0.2168
      3 C3         -1.1523   -0.6963   -0.0090 C.2       1 <0>        -0.2545
      4 C4         -1.1539   -2.1980   -0.0479 C.3       1 <0>         0.2086
      5 N1          0.1552   -2.7371    0.2993 N.pl3     1 <0>        -0.5787
      6 C5          1.2309   -2.0174    0.2968 C.cat     1 <0>         0.5830
      7 N2          1.1968   -0.6775   -0.0378 N.pl3     1 <0>        -0.6077
      8 C6          2.5237   -2.6439    0.6544 C.ar      1 <0>        -0.1601
      9 C7          2.7464   -3.9938    0.3832 C.ar      1 <0>        -0.0620
     10 C8          3.9534   -4.5720    0.7189 C.ar      1 <0>        -0.1106
     11 C9          4.9416   -3.8156    1.3233 C.ar      1 <0>        -0.0469
     12 C10         4.7267   -2.4763    1.5949 C.ar      1 <0>        -0.1119
     13 C11         3.5260   -1.8852    1.2587 C.ar      1 <0>        -0.0531
     14 C12        -1.5241   -2.6556   -1.4352 C.ar      1 <0>        -0.1518
     15 C13        -0.5709   -2.6659   -2.4364 C.ar      1 <0>        -0.0723
     16 C14        -0.9091   -3.0857   -3.7089 C.ar      1 <0>        -0.1421
     17 C15        -2.2032   -3.4960   -3.9809 C.ar      1 <0>         0.1320
     18 C16        -3.1570   -3.4853   -2.9773 C.ar      1 <0>        -0.1360
     19 C17        -2.8152   -3.0700   -1.7043 C.ar      1 <0>        -0.0663
     20 F1         -2.5350   -3.9062   -5.2246 F         1 <0>        -0.1227
     21 C18        -2.3836    0.0016    0.0278 C.2       1 <0>         0.5730
     22 O1         -2.3928    1.2189    0.0598 O.2       1 <0>        -0.5042
     23 N3         -3.5455   -0.6813    0.0273 N.am      1 <0>        -0.6627
     24 C19        -4.7605    0.0038    0.1545 C.ar      1 <0>         0.0939
     25 C20        -4.9116    1.2631   -0.4275 C.ar      1 <0>        -0.0629
     26 C21        -6.0872    1.9472   -0.3153 C.ar      1 <0>        -0.1213
     27 C22        -7.1545    1.3913    0.3864 C.ar      1 <0>         0.1265
     28 C23        -7.0130    0.1215    0.9776 C.ar      1 <0>        -0.1646
     29 C24        -5.8043   -0.5725    0.8501 C.ar      1 <0>        -0.0606
     30 C25        -8.2859   -0.1730    1.6278 C.2       1 <0>         0.0759
     31 N4         -9.0804    0.8388    1.4247 N.2       1 <0>        -0.2385
     32 N5         -8.4275    1.8182    0.6693 N.pl3     1 <0>        -0.5060
     33 H1         -8.8126    2.6637    0.3904 H         1 <0>         0.4438
     34 H2          1.0046    1.8795    0.0102 H         1 <0>         0.0770
     35 H3         -0.5497    1.8743   -0.8571 H         1 <0>         0.1192
     36 H4         -0.5234    1.8428    0.9224 H         1 <0>         0.1206
     37 H5         -1.8935   -2.5727    0.6597 H         1 <0>         0.1372
     38 H6          2.0116   -0.2148   -0.2886 H         1 <0>         0.4553
     39 H7          1.9756   -4.5853   -0.0883 H         1 <0>         0.1391
     40 H8          4.1270   -5.6172    0.5097 H         1 <0>         0.1503
     41 H9          5.8846   -4.2727    1.5845 H         1 <0>         0.1483
     42 H10         5.5018   -1.8910    2.0672 H         1 <0>         0.1504
     43 H11         3.3610   -0.8384    1.4671 H         1 <0>         0.1415
     44 H12         0.4384   -2.3454   -2.2241 H         1 <0>         0.1196
     45 H13        -0.1643   -3.0933   -4.4910 H         1 <0>         0.1472
     46 H14        -4.1669   -3.8048   -3.1884 H         1 <0>         0.1525
     47 H15        -3.5580   -3.0658   -0.9203 H         1 <0>         0.1382
     48 H16        -3.5403   -1.6472   -0.0610 H         1 <0>         0.4009
     49 H17        -4.0888    1.7015   -0.9727 H         1 <0>         0.1463
     50 H18        -6.1901    2.9210   -0.7708 H         1 <0>         0.1339
     51 H19        -5.6877   -1.5491    1.2963 H         1 <0>         0.1325
     52 H20        -8.5263   -1.0702    2.1789 H         1 <0>         0.2003
     53 H21         0.2229   -3.6737    0.5425 H         1 <0>         0.4512
@<TRIPOS>BOND
     1    1    2 1
     2    1   34 1
     3    1   35 1
     4    1   36 1
     5    2    7 1
     6    2    3 2
     7    3    4 1
     8    3   21 1
     9    4    5 1
    10    4   14 1
    11    4   37 1
    12    5    6 2
    13    5   53 1
    14    6    7 1
    15    6    8 1
    16    7   38 1
    17    8   13 ar
    18    8    9 ar
    19    9   10 ar
    20    9   39 1
    21   10   11 ar
    22   10   40 1
    23   11   12 ar
    24   11   41 1
    25   12   13 ar
    26   12   42 1
    27   13   43 1
    28   14   19 ar
    29   14   15 ar
    30   15   16 ar
    31   15   44 1
    32   16   17 ar
    33   16   45 1
    34   17   18 ar
    35   17   20 1
    36   18   19 ar
    37   18   46 1
    38   19   47 1
    39   21   22 2
    40   21   23 am
    41   23   24 1
    42   23   48 1
    43   24   29 ar
    44   24   25 ar
    45   25   26 ar
    46   25   49 1
    47   26   27 ar
    48   26   50 1
    49   27   32 1
    50   27   28 ar
    51   28   29 ar
    52   28   30 1
    53   29   51 1
    54   30   31 2
    55   30   52 1
    56   31   32 1
    57   32   33 1
@<TRIPOS>MOLECULE
CHEMBL519680
   51    55     0     0     0
SMALL
USER_CHARGES

@<TRIPOS>ATOM
      1 C1         -0.0148    1.4922    0.0363 C.3       1 <0>        -0.1054
      2 C2         -0.0023   -0.0144    0.0080 C.2       1 <0>         0.3041
      3 C3         -1.2057   -0.7210    0.1026 C.2       1 <0>        -0.4524
      4 C4         -1.1130   -2.2357    0.0670 C.3       1 <0>         0.2152
      5 N1          0.2402   -2.8040   -0.0639 N.2       1 <0>        -0.5857
      6 C5          1.2595   -1.9867   -0.1401 C.2       1 <0>         0.3835
      7 N2          1.1385   -0.6556   -0.1107 N.2       1 <0>        -0.6660
      8 C6          2.6183   -2.5669   -0.2712 C.ar      1 <0>        -0.0206
      9 C7          2.7871   -3.9497   -0.3165 C.ar      1 <0>        -0.0819
     10 C8          4.0537   -4.4840   -0.4386 C.ar      1 <0>        -0.1365
     11 C9          5.1546   -3.6499   -0.5155 C.ar      1 <0>        -0.1210
     12 C10         4.9930   -2.2768   -0.4710 C.ar      1 <0>        -0.1380
     13 C11         3.7307   -1.7312   -0.3554 C.ar      1 <0>        -0.0773
     14 C12        -1.7260   -2.7726    1.3347 C.ar      1 <0>        -0.0418
     15 C13        -0.9981   -2.7674    2.5100 C.ar      1 <0>        -0.0760
     16 C14        -1.5594   -3.2590    3.6732 C.ar      1 <0>        -0.1660
     17 C15        -2.8513   -3.7569    3.6612 C.ar      1 <0>         0.0717
     18 C16        -3.5794   -3.7617    2.4835 C.ar      1 <0>        -0.1629
     19 C17        -3.0179   -3.2646    1.3227 C.ar      1 <0>        -0.0426
     20 F1         -3.4009   -4.2382    4.7977 F         1 <0>        -0.1544
     21 C18        -2.4174   -0.0732    0.2228 C.2       1 <0>         0.5327
     22 O1         -3.5452   -0.7846    0.4285 O.3       1 <0>        -0.6357
     23 N3         -2.4756    1.2904    0.1335 N.pl3     1 <0>        -0.7042
     24 C19        -2.9695    2.0417    1.2065 C.ar      1 <0>         0.1890
     25 C20        -3.4876    1.3928    2.3284 C.ar      1 <0>        -0.0980
     26 C21        -3.9739    2.1068    3.3849 C.ar      1 <0>        -0.1095
     27 C22        -3.9578    3.4993    3.3535 C.ar      1 <0>         0.0831
     28 C23        -3.4375    4.1643    2.2269 C.ar      1 <0>        -0.1392
     29 C24        -2.9365    3.4209    1.1522 C.ar      1 <0>        -0.1360
     30 C25        -3.5619    5.5927    2.4993 C.2       1 <0>         0.0634
     31 N4         -4.1045    5.7280    3.6756 N.2       1 <0>        -0.2577
     32 N5         -4.3627    4.4715    4.2330 N.pl3     1 <0>        -0.5150
     33 H1         -4.7641    4.3128    5.1017 H         1 <0>         0.4348
     34 H2          1.0098    1.8639    0.0478 H         1 <0>         0.0622
     35 H3         -0.5277    1.8680   -0.8490 H         1 <0>         0.0651
     36 H4         -0.5355    1.8346    0.9306 H         1 <0>         0.0800
     37 H5         -1.7129   -2.5924   -0.7702 H         1 <0>         0.0509
     38 H6          1.9283   -4.6019   -0.2559 H         1 <0>         0.1326
     39 H7          4.1856   -5.5553   -0.4738 H         1 <0>         0.1174
     40 H8          6.1440   -4.0724   -0.6102 H         1 <0>         0.1143
     41 H9          5.8561   -1.6303   -0.5315 H         1 <0>         0.1175
     42 H10         3.6053   -0.6590   -0.3252 H         1 <0>         0.1349
     43 H11         0.0097   -2.3792    2.5191 H         1 <0>         0.1135
     44 H12        -0.9905   -3.2552    4.5912 H         1 <0>         0.1204
     45 H13        -4.5871   -4.1501    2.4729 H         1 <0>         0.1221
     46 H14        -3.5872   -3.2641    0.4049 H         1 <0>         0.1264
     47 H15        -2.1747    1.7369   -0.6734 H         1 <0>         0.4050
     48 H16        -3.5041    0.3134    2.3606 H         1 <0>         0.1452
     49 H17        -4.3722    1.5914    4.2463 H         1 <0>         0.1218
     50 H18        -2.5314    3.9220    0.2855 H         1 <0>         0.1256
     51 H19        -3.2580    6.3945    1.8427 H         1 <0>         0.1916
@<TRIPOS>BOND
     1    1    2 1
     2    1   34 1
     3    1   35 1
     4    1   36 1
     5    2    7 2
     6    2    3 1
     7    3    4 1
     8    3   21 2
     9    4    5 1
    10    4   14 1
    11    4   37 1
    12    5    6 2
    13    6    7 1
    14    6    8 1
    15    8   13 ar
    16    8    9 ar
    17    9   10 ar
    18    9   38 1
    19   10   11 ar
    20   10   39 1
    21   11   12 ar
    22   11   40 1
    23   12   13 ar
    24   12   41 1
    25   13   42 1
    26   14   19 ar
    27   14   15 ar
    28   15   16 ar
    29   15   43 1
    30   16   17 ar
    31   16   44 1
    32   17   18 ar
    33   17   20 1
    34   18   19 ar
    35   18   45 1
    36   19   46 1
    37   21   22 1
    38   21   23 1
    39   23   24 1
    40   23   47 1
    41   24   29 ar
    42   24   25 ar
    43   25   26 ar
    44   25   48 1
    45   26   27 ar
    46   26   49 1
    47   27   32 1
    48   27   28 ar
    49   28   29 ar
    50   28   30 1
    51   29   50 1
    52   30   31 2
    53   30   51 1
    54   31   32 1
    55   32   33 1
@<TRIPOS>MOLECULE
CHEMBL519680
   53    57     0     0     0
SMALL
USER_CHARGES

@<TRIPOS>ATOM
      1 C1         -0.0179    1.5019    0.0213 C.3       1 <0>        -0.1174
      2 C2          0.0022   -0.0048    0.0049 C.2       1 <0>         0.2179
      3 C3         -1.1521   -0.6967    0.0031 C.2       1 <0>        -0.2555
      4 C4         -1.1536   -2.1990   -0.0020 C.3       1 <0>         0.2093
      5 N1          0.1500   -2.7274   -0.3848 N.pl3     1 <0>        -0.5788
      6 C5          1.2257   -2.0078   -0.3777 C.cat     1 <0>         0.5836
      7 N2          1.1971   -0.6782   -0.0140 N.pl3     1 <0>        -0.6066
      8 C6          2.5128   -2.6234   -0.7732 C.ar      1 <0>        -0.1565
      9 C7          2.5353   -3.6641   -1.7015 C.ar      1 <0>        -0.0630
     10 C8          3.7380   -4.2337   -2.0660 C.ar      1 <0>        -0.1085
     11 C9          4.9199   -3.7746   -1.5128 C.ar      1 <0>        -0.0492
     12 C10         4.9042   -2.7427   -0.5915 C.ar      1 <0>        -0.1093
     13 C11         3.7083   -2.1610   -0.2233 C.ar      1 <0>        -0.0580
     14 C12        -1.5026   -2.6970    1.3768 C.ar      1 <0>        -0.1508
     15 C13        -0.5370   -2.7257    2.3658 C.ar      1 <0>        -0.0706
     16 C14        -0.8561   -3.1817    3.6307 C.ar      1 <0>        -0.1432
     17 C15        -2.1434   -3.6100    3.9074 C.ar      1 <0>         0.1325
     18 C16        -3.1096   -3.5808    2.9161 C.ar      1 <0>        -0.1379
     19 C17        -2.7896   -3.1194    1.6534 C.ar      1 <0>        -0.0643
     20 F1         -2.4563   -4.0564    5.1435 F         1 <0>        -0.1229
     21 C18        -2.3837    0.0017    0.0065 C.2       1 <0>         0.5736
     22 O1         -2.3930    1.2194    0.0110 O.2       1 <0>        -0.5041
     23 N3         -3.5456   -0.6811    0.0047 N.am      1 <0>        -0.6616
     24 C19        -4.7617    0.0057    0.1098 C.ar      1 <0>         0.0945
     25 C20        -4.9073    1.2558   -0.4932 C.ar      1 <0>        -0.0637
     26 C21        -6.0839    1.9414   -0.4027 C.ar      1 <0>        -0.1213
     27 C22        -7.1577    1.3965    0.2976 C.ar      1 <0>         0.1265
     28 C23        -7.0218    0.1360    0.9098 C.ar      1 <0>        -0.1644
     29 C24        -5.8120   -0.5598    0.8045 C.ar      1 <0>        -0.0592
     30 C25        -8.3008   -0.1484    1.5526 C.2       1 <0>         0.0759
     31 N4         -9.0933    0.8601    1.3263 N.2       1 <0>        -0.2383
     32 N5         -8.4333    1.8276    0.5618 N.pl3     1 <0>        -0.5059
     33 H1         -8.8157    2.6686    0.2662 H         1 <0>         0.4438
     34 H2          1.0048    1.8790    0.0154 H         1 <0>         0.0771
     35 H3         -0.5452    1.8679   -0.8596 H         1 <0>         0.1208
     36 H4         -0.5278    1.8487    0.9201 H         1 <0>         0.1196
     37 H5         -1.9040   -2.5529   -0.7089 H         1 <0>         0.1364
     38 H6          2.0179   -0.2228    0.2304 H         1 <0>         0.4529
     39 H7          1.6132   -4.0236   -2.1338 H         1 <0>         0.1386
     40 H8          3.7567   -5.0399   -2.7845 H         1 <0>         0.1506
     41 H9          5.8588   -4.2239   -1.8010 H         1 <0>         0.1484
     42 H10         5.8301   -2.3888   -0.1628 H         1 <0>         0.1505
     43 H11         3.6976   -1.3525    0.4927 H         1 <0>         0.1387
     44 H12         0.4671   -2.3919    2.1496 H         1 <0>         0.1184
     45 H13        -0.1015   -3.2044    4.4031 H         1 <0>         0.1467
     46 H14        -4.1139   -3.9149    3.1307 H         1 <0>         0.1526
     47 H15        -3.5442   -3.0923    0.8812 H         1 <0>         0.1376
     48 H16        -3.5397   -1.6483   -0.0694 H         1 <0>         0.4012
     49 H17        -4.0794    1.6857   -1.0374 H         1 <0>         0.1467
     50 H18        -6.1825    2.9080   -0.8743 H         1 <0>         0.1339
     51 H19        -5.6996   -1.5292    1.2670 H         1 <0>         0.1314
     52 H20        -8.5464   -1.0369    2.1153 H         1 <0>         0.2000
     53 H21         0.2138   -3.6566   -0.6557 H         1 <0>         0.4515
@<TRIPOS>BOND
     1    1    2 1
     2    1   34 1
     3    1   35 1
     4    1   36 1
     5    2    7 1
     6    2    3 2
     7    3    4 1
     8    3   21 1
     9    4    5 1
    10    4   14 1
    11    4   37 1
    12    5    6 2
    13    5   53 1
    14    6    7 1
    15    6    8 1
    16    7   38 1
    17    8   13 ar
    18    8    9 ar
    19    9   10 ar
    20    9   39 1
    21   10   11 ar
    22   10   40 1
    23   11   12 ar
    24   11   41 1
    25   12   13 ar
    26   12   42 1
    27   13   43 1
    28   14   19 ar
    29   14   15 ar
    30   15   16 ar
    31   15   44 1
    32   16   17 ar
    33   16   45 1
    34   17   18 ar
    35   17   20 1
    36   18   19 ar
    37   18   46 1
    38   19   47 1
    39   21   22 2
    40   21   23 am
    41   23   24 1
    42   23   48 1
    43   24   29 ar
    44   24   25 ar
    45   25   26 ar
    46   25   49 1
    47   26   27 ar
    48   26   50 1
    49   27   32 1
    50   27   28 ar
    51   28   29 ar
    52   28   30 1
    53   29   51 1
    54   30   31 2
    55   30   52 1
    56   31   32 1
    57   32   33 1
@<TRIPOS>MOLECULE
CHEMBL371708
   70    74     0     0     0
SMALL
USER_CHARGES

@<TRIPOS>ATOM
      1 C1          2.6246   -1.1822    3.7222 C.ar      1 <0>        -0.1259
      2 C2          3.4233   -0.1148    3.3433 C.ar      1 <0>        -0.0949
      3 C3          3.5628    0.2205    2.0125 C.ar      1 <0>        -0.1197
      4 C4          2.8991   -0.5147    1.0373 C.ar      1 <0>         0.1145
      5 C5          2.0914   -1.5944    1.4231 C.ar      1 <0>        -0.0415
      6 C6          1.9582   -1.9232    2.7685 C.ar      1 <0>        -0.0785
      7 C7          1.5360   -2.1578    0.1750 C.2       1 <0>        -0.1351
      8 C8          2.0520   -1.3740   -0.8661 C.2       1 <0>         0.3121
      9 N1          2.8504   -0.4136   -0.3440 N.pl3     1 <0>        -0.5740
     10 H1          3.3235    0.2537   -0.8652 H         1 <0>         0.4166
     11 O1          1.7947   -1.5490   -2.1784 O.3       1 <0>        -0.4539
     12 N2          0.7118   -3.2003    0.0621 N.2       1 <0>         0.0327
     13 N3          1.1892   -4.3803   -0.1469 N.2       1 <0>        -0.2273
     14 C9          2.5138   -4.5820   -0.1182 C.2       1 <0>         0.3828
     15 O2          3.2688   -3.6399    0.0143 O.2       1 <0>        -0.4134
     16 C10         3.0666   -5.9777   -0.2505 C.3       1 <0>         0.0951
     17 N4          4.5296   -5.9314   -0.1893 N.pl3     1 <0>        -0.9252
     18 C11         5.1776   -5.9362    1.0488 C.ar      1 <0>         0.1818
     19 C12         6.4362   -5.3629    1.1775 C.ar      1 <0>        -0.1394
     20 C13         7.0741   -5.3687    2.4024 C.ar      1 <0>        -0.0714
     21 C14         6.4608   -5.9452    3.5007 C.ar      1 <0>        -0.0552
     22 C15         5.2069   -6.5171    3.3753 C.ar      1 <0>        -0.0773
     23 C16         4.5619   -6.5091    2.1542 C.ar      1 <0>        -0.1370
     24 Cl1         7.2661   -5.9517    5.0387 Cl        1 <0>        -0.0670
     25 S1          5.4153   -5.8734   -1.5873 S.o2      1 <0>         2.6823
     26 O3          6.6833   -6.4410   -1.2885 O.2       1 <0>        -0.9397
     27 O4          4.5789   -6.3780   -2.6193 O.2       1 <0>        -0.9459
     28 C17         5.6985   -4.1735   -1.9545 C.ar      1 <0>        -0.7224
     29 C18         4.7276   -3.4383   -2.6096 C.ar      1 <0>         0.0479
     30 C19         4.9463   -2.1057   -2.8990 C.ar      1 <0>        -0.2010
     31 C20         6.1430   -1.5040   -2.5311 C.ar      1 <0>         0.2710
     32 C21         7.1161   -2.2455   -1.8731 C.ar      1 <0>        -0.2100
     33 C22         6.8887   -3.5762   -1.5818 C.ar      1 <0>         0.0267
     34 N5          6.3677   -0.1566   -2.8226 N.pl3     1 <0>        -0.7392
     35 C23         7.6304    0.4763   -2.4339 C.3       1 <0>         0.1223
     36 C24         7.6200    1.9436   -2.8672 C.3       1 <0>         0.0461
     37 N6          8.8862    2.5783   -2.4774 N.3       1 <0>        -0.5327
     38 C25         9.0095    2.6533   -1.0144 C.3       1 <0>         0.0127
     39 C26        10.3655    3.2651   -0.6526 C.3       1 <0>         0.0625
     40 O5         10.4845    4.5484   -1.2725 O.3       1 <0>        -0.3837
     41 C27        10.3699    4.5122   -2.6976 C.3       1 <0>         0.0627
     42 C28         9.0139    3.9131   -3.0801 C.3       1 <0>         0.0187
     43 H2          2.5272   -1.4374    4.7671 H         1 <0>         0.1291
     44 H3          3.9410    0.4600    4.0969 H         1 <0>         0.1303
     45 H4          4.1875    1.0544    1.7284 H         1 <0>         0.1219
     46 H5          1.3357   -2.7545    3.0648 H         1 <0>         0.1217
     47 H6          1.0730   -0.9999   -2.5143 H         1 <0>         0.4010
     48 H7          2.6883   -6.5969    0.5629 H         1 <0>         0.1362
     49 H8          2.7561   -6.4025   -1.2051 H         1 <0>         0.1467
     50 H9          6.9156   -4.9134    0.3205 H         1 <0>         0.1341
     51 H10         8.0527   -4.9231    2.5031 H         1 <0>         0.1402
     52 H11         4.7305   -6.9664    4.2342 H         1 <0>         0.1403
     53 H12         3.5814   -6.9516    2.0578 H         1 <0>         0.1384
     54 H13         3.7975   -3.9068   -2.8957 H         1 <0>         0.1254
     55 H14         4.1878   -1.5322   -3.4110 H         1 <0>         0.1270
     56 H15         8.0478   -1.7808   -1.5861 H         1 <0>         0.1301
     57 H16         7.6430   -4.1521   -1.0664 H         1 <0>         0.1383
     58 H17         5.6876    0.3600   -3.2824 H         1 <0>         0.4006
     59 H18         7.7482    0.4178   -1.3519 H         1 <0>         0.0648
     60 H19         8.4596   -0.0396   -2.9181 H         1 <0>         0.0760
     61 H20         7.5022    2.0022   -3.9492 H         1 <0>         0.0842
     62 H21         6.7908    2.4596   -2.3830 H         1 <0>         0.0414
     63 H22         8.2103    3.2767   -0.6133 H         1 <0>         0.0451
     64 H23         8.9376    1.6514   -0.5912 H         1 <0>         0.0887
     65 H24        10.4380    3.3754    0.4294 H         1 <0>         0.1008
     66 H25        11.1647    2.6141   -1.0071 H         1 <0>         0.0624
     67 H26        10.4456    5.5245   -3.0946 H         1 <0>         0.1013
     68 H27        11.1692    3.8975   -3.1115 H         1 <0>         0.0624
     69 H28         8.9453    3.8308   -4.1648 H         1 <0>         0.0889
     70 H29         8.2148    4.5566   -2.7120 H         1 <0>         0.0453
@<TRIPOS>BOND
     1    1    6 ar
     2    1    2 ar
     3    1   43 1
     4    2    3 ar
     5    2   44 1
     6    3    4 ar
     7    3   45 1
     8    4    9 1
     9    4    5 ar
    10    5    6 ar
    11    5    7 1
    12    6   46 1
    13    7    8 2
    14    7   12 1
    15    8    9 1
    16    8   11 1
    17    9   10 1
    18   11   47 1
    19   12   13 2
    20   13   14 1
    21   14   15 2
    22   14   16 1
    23   16   17 1
    24   16   48 1
    25   16   49 1
    26   17   18 1
    27   17   25 1
    28   18   23 ar
    29   18   19 ar
    30   19   20 ar
    31   19   50 1
    32   20   21 ar
    33   20   51 1
    34   21   22 ar
    35   21   24 1
    36   22   23 ar
    37   22   52 1
    38   23   53 1
    39   25   26 2
    40   25   27 2
    41   25   28 1
    42   28   33 ar
    43   28   29 ar
    44   29   30 ar
    45   29   54 1
    46   30   31 ar
    47   30   55 1
    48   31   32 ar
    49   31   34 1
    50   32   33 ar
    51   32   56 1
    52   33   57 1
    53   34   35 1
    54   34   58 1
    55   35   36 1
    56   35   59 1
    57   35   60 1
    58   36   37 1
    59   36   61 1
    60   36   62 1
    61   37   42 1
    62   37   38 1
    63   38   39 1
    64   38   63 1
    65   38   64 1
    66   39   40 1
    67   39   65 1
    68   39   66 1
    69   40   41 1
    70   41   42 1
    71   41   67 1
    72   41   68 1
    73   42   69 1
    74   42   70 1
@<TRIPOS>MOLECULE
CHEMBL371708
   71    75     0     0     0
SMALL
USER_CHARGES

@<TRIPOS>ATOM
      1 C1          2.6246   -1.1822    3.7222 C.ar      1 <0>        -0.1249
      2 C2          3.4233   -0.1148    3.3433 C.ar      1 <0>        -0.0917
      3 C3          3.5628    0.2205    2.0125 C.ar      1 <0>        -0.1251
      4 C4          2.8991   -0.5147    1.0373 C.ar      1 <0>         0.1138
      5 C5          2.0914   -1.5944    1.4231 C.ar      1 <0>        -0.0428
      6 C6          1.9582   -1.9232    2.7685 C.ar      1 <0>        -0.0741
      7 C7          1.5360   -2.1578    0.1750 C.2       1 <0>        -0.1258
      8 C8          2.0520   -1.3740   -0.8661 C.2       1 <0>         0.3046
      9 N1          2.8504   -0.4136   -0.3440 N.pl3     1 <0>        -0.5770
     10 H1          3.3235    0.2537   -0.8652 H         1 <0>         0.4121
     11 O1          1.7947   -1.5490   -2.1784 O.3       1 <0>        -0.4556
     12 N2          0.7118   -3.2003    0.0621 N.2       1 <0>         0.0337
     13 N3          1.1892   -4.3803   -0.1469 N.2       1 <0>        -0.2232
     14 C9          2.5138   -4.5820   -0.1182 C.2       1 <0>         0.3873
     15 O2          3.2688   -3.6399    0.0143 O.2       1 <0>        -0.4211
     16 C10         3.0666   -5.9777   -0.2505 C.3       1 <0>         0.0928
     17 N4          4.5296   -5.9314   -0.1893 N.pl3     1 <0>        -0.9233
     18 C11         5.1776   -5.9362    1.0488 C.ar      1 <0>         0.1787
     19 C12         6.4362   -5.3629    1.1775 C.ar      1 <0>        -0.1418
     20 C13         7.0741   -5.3687    2.4024 C.ar      1 <0>        -0.0728
     21 C14         6.4608   -5.9452    3.5007 C.ar      1 <0>        -0.0539
     22 C15         5.2069   -6.5171    3.3753 C.ar      1 <0>        -0.0747
     23 C16         4.5619   -6.5091    2.1542 C.ar      1 <0>        -0.1340
     24 Cl1         7.2661   -5.9517    5.0387 Cl        1 <0>        -0.0625
     25 S1          5.4153   -5.8734   -1.5873 S.o2      1 <0>         2.6803
     26 O3          6.6833   -6.4410   -1.2885 O.2       1 <0>        -0.9342
     27 O4          4.5789   -6.3780   -2.6193 O.2       1 <0>        -0.9390
     28 C17         5.6985   -4.1735   -1.9545 C.ar      1 <0>        -0.7075
     29 C18         4.7276   -3.4383   -2.6096 C.ar      1 <0>         0.0497
     30 C19         4.9463   -2.1057   -2.8990 C.ar      1 <0>        -0.1871
     31 C20         6.1430   -1.5040   -2.5311 C.ar      1 <0>         0.2548
     32 C21         7.1161   -2.2455   -1.8731 C.ar      1 <0>        -0.2080
     33 C22         6.8887   -3.5762   -1.5818 C.ar      1 <0>         0.0267
     34 N5          6.3677   -0.1566   -2.8226 N.pl3     1 <0>        -0.7434
     35 C23         7.6304    0.4763   -2.4339 C.3       1 <0>         0.0997
     36 C24         7.6200    1.9436   -2.8672 C.3       1 <0>        -0.0203
     37 N6          8.8862    2.5783   -2.4774 N.4       1 <0>        -0.3818
     38 C25         8.9889    2.6075   -1.0119 C.3       1 <0>        -0.0510
     39 C26        10.3090    3.2689   -0.6084 C.3       1 <0>         0.0365
     40 O5         10.3666    4.5851   -1.1653 O.3       1 <0>        -0.3545
     41 C27        10.2465    4.6109   -2.5904 C.3       1 <0>         0.0357
     42 C28         8.9263    3.9519   -2.9976 C.3       1 <0>        -0.0426
     43 H2          2.5272   -1.4374    4.7671 H         1 <0>         0.1315
     44 H3          3.9410    0.4600    4.0969 H         1 <0>         0.1309
     45 H4          4.1875    1.0544    1.7284 H         1 <0>         0.1182
     46 H5          1.3357   -2.7545    3.0648 H         1 <0>         0.1240
     47 H6          1.0730   -0.9999   -2.5143 H         1 <0>         0.4022
     48 H7          2.6883   -6.5969    0.5629 H         1 <0>         0.1398
     49 H8          2.7561   -6.4025   -1.2051 H         1 <0>         0.1491
     50 H9          6.9156   -4.9134    0.3205 H         1 <0>         0.1304
     51 H10         8.0527   -4.9231    2.5031 H         1 <0>         0.1392
     52 H11         4.7305   -6.9664    4.2342 H         1 <0>         0.1427
     53 H12         3.5814   -6.9516    2.0578 H         1 <0>         0.1400
     54 H13         3.7975   -3.9068   -2.8957 H         1 <0>         0.1320
     55 H14         4.1878   -1.5322   -3.4110 H         1 <0>         0.1317
     56 H15         8.0478   -1.7808   -1.5861 H         1 <0>         0.1260
     57 H16         7.6430   -4.1521   -1.0664 H         1 <0>         0.1432
     58 H17         5.6876    0.3600   -3.2824 H         1 <0>         0.4077
     59 H18         7.7482    0.4178   -1.3519 H         1 <0>         0.0835
     60 H19         8.4596   -0.0396   -2.9181 H         1 <0>         0.0850
     61 H20         7.5022    2.0022   -3.9492 H         1 <0>         0.1409
     62 H21         6.7908    2.4596   -2.3830 H         1 <0>         0.1373
     63 H22         8.1559    3.1774   -0.6003 H         1 <0>         0.1413
     64 H23         8.9594    1.5889   -0.6250 H         1 <0>         0.1435
     65 H24        10.3680    3.3306    0.4783 H         1 <0>         0.1444
     66 H25        11.1430    2.6772   -0.9858 H         1 <0>         0.0835
     67 H26        10.2603    5.6438   -2.9382 H         1 <0>         0.1446
     68 H27        11.0783    4.0651   -3.0357 H         1 <0>         0.0833
     69 H28         8.8503    3.9314   -4.0847 H         1 <0>         0.1447
     70 H29         8.0933    4.5213   -2.5852 H         1 <0>         0.1405
     71 H30         9.6579    2.0516   -2.8585 H         1 <0>         0.4262
@<TRIPOS>BOND
     1    1    6 ar
     2    1    2 ar
     3    1   43 1
     4    2    3 ar
     5    2   44 1
     6    3    4 ar
     7    3   45 1
     8    4    9 1
     9    4    5 ar
    10    5    6 ar
    11    5    7 1
    12    6   46 1
    13    7    8 2
    14    7   12 1
    15    8    9 1
    16    8   11 1
    17    9   10 1
    18   11   47 1
    19   12   13 2
    20   13   14 1
    21   14   15 2
    22   14   16 1
    23   16   17 1
    24   16   48 1
    25   16   49 1
    26   17   18 1
    27   17   25 1
    28   18   23 ar
    29   18   19 ar
    30   19   20 ar
    31   19   50 1
    32   20   21 ar
    33   20   51 1
    34   21   22 ar
    35   21   24 1
    36   22   23 ar
    37   22   52 1
    38   23   53 1
    39   25   26 2
    40   25   27 2
    41   25   28 1
    42   28   33 ar
    43   28   29 ar
    44   29   30 ar
    45   29   54 1
    46   30   31 ar
    47   30   55 1
    48   31   32 ar
    49   31   34 1
    50   32   33 ar
    51   32   56 1
    52   33   57 1
    53   34   35 1
    54   34   58 1
    55   35   36 1
    56   35   59 1
    57   35   60 1
    58   36   37 1
    59   36   61 1
    60   36   62 1
    61   37   42 1
    62   37   38 1
    63   37   71 1
    64   38   39 1
    65   38   63 1
    66   38   64 1
    67   39   40 1
    68   39   65 1
    69   39   66 1
    70   40   41 1
    71   41   42 1
    72   41   67 1
    73   41   68 1
    74   42   69 1
    75   42   70 1
@<TRIPOS>MOLECULE
CHEMBL371708
   70    74     0     0     0
SMALL
USER_CHARGES

@<TRIPOS>ATOM
      1 C1         -6.7065   -2.2988    3.3161 C.ar      1 <0>        -0.1170
      2 C2         -6.4646   -0.9712    3.6324 C.ar      1 <0>        -0.0966
      3 C3         -5.2113   -0.4236    3.4530 C.ar      1 <0>        -0.1088
      4 C4         -4.1769   -1.2047    2.9509 C.ar      1 <0>         0.0866
      5 C5         -4.4241   -2.5478    2.6316 C.ar      1 <0>        -0.0355
      6 C6         -5.6925   -3.0892    2.8168 C.ar      1 <0>        -0.0697
      7 C7         -3.1450   -3.0927    2.1311 C.2       1 <0>        -0.0680
      8 C8         -2.2261   -2.0358    2.1875 C.2       1 <0>         0.3958
      9 N1         -2.8469   -0.9343    2.6708 N.pl3     1 <0>        -0.5650
     10 H1         -2.4194   -0.0736    2.8030 H         1 <0>         0.4255
     11 O1         -0.9305   -2.1053    1.8195 O.3       1 <0>        -0.4382
     12 N2         -2.9121   -4.3371    1.7114 N.2       1 <0>        -0.0475
     13 N3         -1.7357   -4.6693    1.2995 N.2       1 <0>        -0.3940
     14 C9         -1.5017   -5.9197    0.8779 C.2       1 <0>         0.4443
     15 O2         -2.3972   -6.7401    0.8836 O.2       1 <0>        -0.4665
     16 C10        -0.1273   -6.3079    0.3967 C.3       1 <0>         0.1150
     17 N4         -0.1308   -7.7163   -0.0064 N.pl3     1 <0>        -0.9371
     18 C11        -0.5364   -8.0733   -1.2951 C.ar      1 <0>         0.1500
     19 C12        -1.7144   -8.7853   -1.4816 C.ar      1 <0>        -0.0971
     20 C13        -2.1131   -9.1363   -2.7564 C.ar      1 <0>        -0.0964
     21 C14        -1.3401   -8.7798   -3.8474 C.ar      1 <0>        -0.0321
     22 C15        -0.1661   -8.0704   -3.6646 C.ar      1 <0>        -0.0994
     23 C16         0.2346   -7.7117   -2.3924 C.ar      1 <0>        -0.1016
     24 Cl1        -1.8438   -9.2237   -5.4483 Cl        1 <0>        -0.0659
     25 S1          0.3461   -8.8854    1.0651 S.o2      1 <0>         2.6863
     26 O3          0.6342  -10.0463    0.2980 O.2       1 <0>        -0.9432
     27 O4          1.3044   -8.2826    1.9240 O.2       1 <0>        -0.9521
     28 C17        -1.0509   -9.2766    2.0652 C.ar      1 <0>        -0.7199
     29 C18        -1.3576   -8.4895    3.1601 C.ar      1 <0>         0.0383
     30 C19        -2.4518   -8.7933    3.9460 C.ar      1 <0>        -0.2062
     31 C20        -3.2446   -9.8909    3.6356 C.ar      1 <0>         0.2737
     32 C21        -2.9337  -10.6793    2.5350 C.ar      1 <0>        -0.2123
     33 C22        -1.8413  -10.3666    1.7501 C.ar      1 <0>         0.0301
     34 N5         -4.3518  -10.2012    4.4286 N.pl3     1 <0>        -0.7385
     35 C23        -5.1868  -11.3591    4.0998 C.3       1 <0>         0.1228
     36 C24        -6.3231  -11.4741    5.1179 C.3       1 <0>         0.0452
     37 N6         -7.1605  -12.6351    4.7882 N.3       1 <0>        -0.5332
     38 C25        -7.8622  -12.4333    3.5122 C.3       1 <0>         0.0118
     39 C26        -8.6740  -13.6876    3.1784 C.3       1 <0>         0.0629
     40 O5         -9.5749  -13.9664    4.2536 O.3       1 <0>        -0.3844
     41 C27        -8.9251  -14.1691    5.5114 C.3       1 <0>         0.0630
     42 C28        -8.1158  -12.9196    5.8688 C.3       1 <0>         0.0185
     43 H2         -7.6911   -2.7168    3.4654 H         1 <0>         0.1334
     44 H3         -7.2648   -0.3597    4.0225 H         1 <0>         0.1356
     45 H4         -5.0338    0.6121    3.7023 H         1 <0>         0.1311
     46 H5         -5.8821   -4.1234    2.5703 H         1 <0>         0.1352
     47 H6         -0.7735   -1.8897    0.8900 H         1 <0>         0.4185
     48 H7          0.1481   -5.6867   -0.4556 H         1 <0>         0.1251
     49 H8          0.5939   -6.1619    1.2008 H         1 <0>         0.1349
     50 H9         -2.3177   -9.0645   -0.6304 H         1 <0>         0.1392
     51 H10        -3.0290   -9.6900   -2.9019 H         1 <0>         0.1392
     52 H11         0.4353   -7.7934   -4.5178 H         1 <0>         0.1405
     53 H12         1.1486   -7.1543   -2.2507 H         1 <0>         0.1401
     54 H13        -0.7405   -7.6366    3.4010 H         1 <0>         0.1259
     55 H14        -2.6905   -8.1784    4.8012 H         1 <0>         0.1258
     56 H15        -3.5479  -11.5336    2.2912 H         1 <0>         0.1296
     57 H16        -1.6016  -10.9766    0.8917 H         1 <0>         0.1379
     58 H17        -4.5677   -9.6501    5.1971 H         1 <0>         0.4024
     59 H18        -5.6052  -11.2335    3.1011 H         1 <0>         0.0649
     60 H19        -4.5804  -12.2643    4.1284 H         1 <0>         0.0751
     61 H20        -5.9048  -11.5997    6.1166 H         1 <0>         0.0840
     62 H21        -6.9296  -10.5688    5.0893 H         1 <0>         0.0435
     63 H22        -8.5323  -11.5778    3.5967 H         1 <0>         0.0459
     64 H23        -7.1345  -12.2496    2.7217 H         1 <0>         0.0896
     65 H24        -9.2408  -13.5213    2.2624 H         1 <0>         0.1005
     66 H25        -7.9988  -14.5323    3.0411 H         1 <0>         0.0620
     67 H26        -9.6736  -14.3508    6.2826 H         1 <0>         0.1006
     68 H27        -8.2572  -15.0277    5.4418 H         1 <0>         0.0619
     69 H28        -7.5733  -13.0909    6.7985 H         1 <0>         0.0886
     70 H29        -8.7901  -12.0719    5.9910 H         1 <0>         0.0454
@<TRIPOS>BOND
     1    1    6 ar
     2    1    2 ar
     3    1   43 1
     4    2    3 ar
     5    2   44 1
     6    3    4 ar
     7    3   45 1
     8    4    9 1
     9    4    5 ar
    10    5    6 ar
    11    5    7 1
    12    6   46 1
    13    7    8 2
    14    7   12 1
    15    8    9 1
    16    8   11 1
    17    9   10 1
    18   11   47 1
    19   12   13 2
    20   13   14 1
    21   14   15 2
    22   14   16 1
    23   16   17 1
    24   16   48 1
    25   16   49 1
    26   17   18 1
    27   17   25 1
    28   18   23 ar
    29   18   19 ar
    30   19   20 ar
    31   19   50 1
    32   20   21 ar
    33   20   51 1
    34   21   22 ar
    35   21   24 1
    36   22   23 ar
    37   22   52 1
    38   23   53 1
    39   25   26 2
    40   25   27 2
    41   25   28 1
    42   28   33 ar
    43   28   29 ar
    44   29   30 ar
    45   29   54 1
    46   30   31 ar
    47   30   55 1
    48   31   32 ar
    49   31   34 1
    50   32   33 ar
    51   32   56 1
    52   33   57 1
    53   34   35 1
    54   34   58 1
    55   35   36 1
    56   35   59 1
    57   35   60 1
    58   36   37 1
    59   36   61 1
    60   36   62 1
    61   37   42 1
    62   37   38 1
    63   38   39 1
    64   38   63 1
    65   38   64 1
    66   39   40 1
    67   39   65 1
    68   39   66 1
    69   40   41 1
    70   41   42 1
    71   41   67 1
    72   41   68 1
    73   42   69 1
    74   42   70 1
@<TRIPOS>MOLECULE
CHEMBL371708
   71    75     0     0     0
SMALL
USER_CHARGES

@<TRIPOS>ATOM
      1 C1         -6.7065   -2.2988    3.3161 C.ar      1 <0>        -0.1161
      2 C2         -6.4646   -0.9712    3.6324 C.ar      1 <0>        -0.0964
      3 C3         -5.2113   -0.4236    3.4530 C.ar      1 <0>        -0.1051
      4 C4         -4.1769   -1.2047    2.9509 C.ar      1 <0>         0.0866
      5 C5         -4.4241   -2.5478    2.6316 C.ar      1 <0>        -0.0353
      6 C6         -5.6925   -3.0892    2.8168 C.ar      1 <0>        -0.0727
      7 C7         -3.1450   -3.0927    2.1311 C.2       1 <0>        -0.0707
      8 C8         -2.2261   -2.0358    2.1875 C.2       1 <0>         0.4034
      9 N1         -2.8469   -0.9343    2.6708 N.pl3     1 <0>        -0.5628
     10 H1         -2.4194   -0.0736    2.8030 H         1 <0>         0.4276
     11 O1         -0.9305   -2.1053    1.8195 O.3       1 <0>        -0.4382
     12 N2         -2.9121   -4.3371    1.7114 N.2       1 <0>        -0.0477
     13 N3         -1.7357   -4.6693    1.2995 N.2       1 <0>        -0.3998
     14 C9         -1.5017   -5.9197    0.8779 C.2       1 <0>         0.4499
     15 O2         -2.3972   -6.7401    0.8836 O.2       1 <0>        -0.4784
     16 C10        -0.1273   -6.3079    0.3967 C.3       1 <0>         0.1119
     17 N4         -0.1308   -7.7163   -0.0064 N.pl3     1 <0>        -0.9344
     18 C11        -0.5364   -8.0733   -1.2951 C.ar      1 <0>         0.1465
     19 C12        -1.7144   -8.7853   -1.4816 C.ar      1 <0>        -0.0991
     20 C13        -2.1131   -9.1363   -2.7564 C.ar      1 <0>        -0.0980
     21 C14        -1.3401   -8.7798   -3.8474 C.ar      1 <0>        -0.0308
     22 C15        -0.1661   -8.0704   -3.6646 C.ar      1 <0>        -0.0967
     23 C16         0.2346   -7.7117   -2.3924 C.ar      1 <0>        -0.0990
     24 Cl1        -1.8438   -9.2237   -5.4483 Cl        1 <0>        -0.0613
     25 S1          0.3461   -8.8854    1.0651 S.o2      1 <0>         2.6843
     26 O3          0.6342  -10.0463    0.2980 O.2       1 <0>        -0.9383
     27 O4          1.3044   -8.2826    1.9240 O.2       1 <0>        -0.9455
     28 C17        -1.0509   -9.2766    2.0652 C.ar      1 <0>        -0.7046
     29 C18        -1.3576   -8.4895    3.1601 C.ar      1 <0>         0.0407
     30 C19        -2.4518   -8.7933    3.9460 C.ar      1 <0>        -0.1929
     31 C20        -3.2446   -9.8909    3.6356 C.ar      1 <0>         0.2574
     32 C21        -2.9337  -10.6793    2.5350 C.ar      1 <0>        -0.2104
     33 C22        -1.8413  -10.3666    1.7501 C.ar      1 <0>         0.0301
     34 N5         -4.3518  -10.2012    4.4286 N.pl3     1 <0>        -0.7429
     35 C23        -5.1868  -11.3591    4.0998 C.3       1 <0>         0.1006
     36 C24        -6.3231  -11.4741    5.1179 C.3       1 <0>        -0.0205
     37 N6         -7.1605  -12.6351    4.7882 N.4       1 <0>        -0.3817
     38 C25        -7.8203  -12.4118    3.4944 C.3       1 <0>        -0.0512
     39 C26        -8.6919  -13.6229    3.1530 C.3       1 <0>         0.0367
     40 O5         -9.6445  -13.8284    4.2000 O.3       1 <0>        -0.3553
     41 C27        -9.0501  -14.0270    5.4858 C.3       1 <0>         0.0359
     42 C28        -8.1792  -12.8166    5.8315 C.3       1 <0>        -0.0426
     43 H2         -7.6911   -2.7168    3.4654 H         1 <0>         0.1328
     44 H3         -7.2648   -0.3597    4.0225 H         1 <0>         0.1370
     45 H4         -5.0338    0.6121    3.7023 H         1 <0>         0.1332
     46 H5         -5.8821   -4.1234    2.5703 H         1 <0>         0.1327
     47 H6         -0.7735   -1.8897    0.8900 H         1 <0>         0.4209
     48 H7          0.1481   -5.6867   -0.4556 H         1 <0>         0.1281
     49 H8          0.5939   -6.1619    1.2008 H         1 <0>         0.1361
     50 H9         -2.3177   -9.0645   -0.6304 H         1 <0>         0.1354
     51 H10        -3.0290   -9.6900   -2.9019 H         1 <0>         0.1381
     52 H11         0.4353   -7.7934   -4.5178 H         1 <0>         0.1429
     53 H12         1.1486   -7.1543   -2.2507 H         1 <0>         0.1418
     54 H13        -0.7405   -7.6366    3.4010 H         1 <0>         0.1326
     55 H14        -2.6905   -8.1784    4.8012 H         1 <0>         0.1303
     56 H15        -3.5479  -11.5336    2.2912 H         1 <0>         0.1254
     57 H16        -1.6016  -10.9766    0.8917 H         1 <0>         0.1427
     58 H17        -4.5677   -9.6501    5.1971 H         1 <0>         0.4093
     59 H18        -5.6052  -11.2335    3.1011 H         1 <0>         0.0834
     60 H19        -4.5804  -12.2643    4.1284 H         1 <0>         0.0839
     61 H20        -5.9048  -11.5997    6.1166 H         1 <0>         0.1406
     62 H21        -6.9296  -10.5688    5.0893 H         1 <0>         0.1389
     63 H22        -8.4441  -11.5199    3.5536 H         1 <0>         0.1420
     64 H23        -7.0654  -12.2771    2.7197 H         1 <0>         0.1441
     65 H24        -9.2159  -13.4413    2.2147 H         1 <0>         0.1439
     66 H25        -8.0630  -14.5077    3.0543 H         1 <0>         0.0830
     67 H26        -9.8333  -14.1379    6.2356 H         1 <0>         0.1439
     68 H27        -8.4335  -14.9256    5.4668 H         1 <0>         0.0827
     69 H28        -7.6907  -12.9825    6.7917 H         1 <0>         0.1444
     70 H29        -8.8029  -11.9246    5.8898 H         1 <0>         0.1408
     71 H30        -6.5837  -13.4613    4.7337 H         1 <0>         0.4256
@<TRIPOS>BOND
     1    1    6 ar
     2    1    2 ar
     3    1   43 1
     4    2    3 ar
     5    2   44 1
     6    3    4 ar
     7    3   45 1
     8    4    9 1
     9    4    5 ar
    10    5    6 ar
    11    5    7 1
    12    6   46 1
    13    7    8 2
    14    7   12 1
    15    8    9 1
    16    8   11 1
    17    9   10 1
    18   11   47 1
    19   12   13 2
    20   13   14 1
    21   14   15 2
    22   14   16 1
    23   16   17 1
    24   16   48 1
    25   16   49 1
    26   17   18 1
    27   17   25 1
    28   18   23 ar
    29   18   19 ar
    30   19   20 ar
    31   19   50 1
    32   20   21 ar
    33   20   51 1
    34   21   22 ar
    35   21   24 1
    36   22   23 ar
    37   22   52 1
    38   23   53 1
    39   25   26 2
    40   25   27 2
    41   25   28 1
    42   28   33 ar
    43   28   29 ar
    44   29   30 ar
    45   29   54 1
    46   30   31 ar
    47   30   55 1
    48   31   32 ar
    49   31   34 1
    50   32   33 ar
    51   32   56 1
    52   33   57 1
    53   34   35 1
    54   34   58 1
    55   35   36 1
    56   35   59 1
    57   35   60 1
    58   36   37 1
    59   36   61 1
    60   36   62 1
    61   37   42 1
    62   37   38 1
    63   37   71 1
    64   38   39 1
    65   38   63 1
    66   38   64 1
    67   39   40 1
    68   39   65 1
    69   39   66 1
    70   40   41 1
    71   41   42 1
    72   41   67 1
    73   41   68 1
    74   42   69 1
    75   42   70 1
@<TRIPOS>MOLECULE
CHEMBL270902
   36    38     0     0     0
SMALL
USER_CHARGES

@<TRIPOS>ATOM
      1 C1          0.0274    1.2287   -0.5661 C.ar      1 <0>        -0.1028
      2 C2          1.1764    1.9744   -0.3791 C.ar      1 <0>        -0.0613
      3 C3          2.4027    1.3439   -0.2876 C.ar      1 <0>        -0.0884
      4 C4          2.4812   -0.0345   -0.3827 C.ar      1 <0>        -0.0137
      5 C5          1.3320   -0.7810   -0.5693 C.ar      1 <0>        -0.1001
      6 C6          0.1046   -0.1492   -0.6613 C.ar      1 <0>        -0.0146
      7 Cl1        -1.3384   -1.0855   -0.8955 Cl        1 <0>        -0.0464
      8 Cl2         4.0219   -0.8263   -0.2683 Cl        1 <0>        -0.0491
      9 C7          3.6549    2.1575   -0.0848 C.3       1 <0>         0.1080
     10 C8          3.9860    2.2205    1.4076 C.3       1 <0>         0.0911
     11 N1          5.2655    2.9088    1.5953 N.pl3     1 <0>        -0.4622
     12 C9          6.5048    2.3279    1.6171 C.2       1 <0>        -0.0642
     13 C10         7.3960    3.3183    1.8126 C.2       1 <0>        -0.0176
     14 N2          6.7195    4.4726    1.9075 N.2       1 <0>        -0.4831
     15 C11         5.4432    4.2356    1.7732 C.2       1 <0>         0.1941
     16 O1          3.4490    3.4808   -0.5834 O.3       1 <0>        -0.2866
     17 C12         4.5194    4.1017   -1.1463 C.ar      1 <0>         0.1419
     18 C13         5.7319    3.4364   -1.2518 C.ar      1 <0>        -0.1760
     19 C14         6.8186    4.0689   -1.8241 C.ar      1 <0>        -0.0539
     20 C15         6.6987    5.3655   -2.2923 C.ar      1 <0>        -0.0529
     21 C16         5.4905    6.0316   -2.1884 C.ar      1 <0>        -0.0630
     22 C17         4.3989    5.4003   -1.6215 C.ar      1 <0>        -0.0545
     23 Cl3         2.8810    6.2335   -1.4976 Cl        1 <0>        -0.0429
     24 Cl4         8.0663    6.1578   -3.0104 Cl        1 <0>        -0.0537
     25 H1         -0.9312    1.7217   -0.6334 H         1 <0>         0.1471
     26 H2          1.1156    3.0501   -0.3049 H         1 <0>         0.1533
     27 H3          1.3927   -1.8568   -0.6436 H         1 <0>         0.1509
     28 H4          4.4817    1.6917   -0.6211 H         1 <0>         0.1054
     29 H5          3.2003    2.7650    1.9314 H         1 <0>         0.1111
     30 H6          4.0555    1.2089    1.8074 H         1 <0>         0.1118
     31 H7          6.7253    1.2771    1.5004 H         1 <0>         0.1717
     32 H8          8.4677    3.2034    1.8809 H         1 <0>         0.1683
     33 H9          4.6588    4.9774    1.8023 H         1 <0>         0.1977
     34 H10         5.8264    2.4245   -0.8864 H         1 <0>         0.1419
     35 H11         7.7628    3.5509   -1.9059 H         1 <0>         0.1415
     36 H12         5.3990    7.0437   -2.5540 H         1 <0>         0.1510
@<TRIPOS>BOND
     1    1    6 ar
     2    1    2 ar
     3    1   25 1
     4    2    3 ar
     5    2   26 1
     6    3    4 ar
     7    3    9 1
     8    4    5 ar
     9    4    8 1
    10    5    6 ar
    11    5   27 1
    12    6    7 1
    13    9   10 1
    14    9   16 1
    15    9   28 1
    16   10   11 1
    17   10   29 1
    18   10   30 1
    19   11   15 1
    20   11   12 1
    21   12   13 2
    22   12   31 1
    23   13   14 1
    24   13   32 1
    25   14   15 2
    26   15   33 1
    27   16   17 1
    28   17   22 ar
    29   17   18 ar
    30   18   19 ar
    31   18   34 1
    32   19   20 ar
    33   19   35 1
    34   20   21 ar
    35   20   24 1
    36   21   22 ar
    37   21   36 1
    38   22   23 1
@<TRIPOS>MOLECULE
CHEMBL270902
   37    39     0     0     0
SMALL
USER_CHARGES

@<TRIPOS>ATOM
      1 C1          0.0272    1.2290   -0.5661 C.ar      1 <0>        -0.1009
      2 C2          1.1763    1.9745   -0.3791 C.ar      1 <0>        -0.0574
      3 C3          2.4026    1.3439   -0.2879 C.ar      1 <0>        -0.1058
      4 C4          2.4809   -0.0344   -0.3831 C.ar      1 <0>        -0.0108
      5 C5          1.3316   -0.7809   -0.5697 C.ar      1 <0>        -0.0975
      6 C6          0.1043   -0.1489   -0.6615 C.ar      1 <0>        -0.0061
      7 Cl1        -1.3388   -1.0850   -0.8957 Cl        1 <0>        -0.0323
      8 Cl2         4.0216   -0.8264   -0.2690 Cl        1 <0>        -0.0502
      9 C7          3.6548    2.1574   -0.0850 C.3       1 <0>         0.1106
     10 C8          3.9861    2.2202    1.4074 C.3       1 <0>         0.0766
     11 N1          5.2657    2.9084    1.5950 N.pl3     1 <0>        -0.4113
     12 C9          6.5049    2.3274    1.6162 C.2       1 <0>         0.0188
     13 C10         7.3963    3.3177    1.8119 C.2       1 <0>         0.0135
     14 N2          6.7198    4.4719    1.9076 N.pl3     1 <0>        -0.4710
     15 C11         5.4434    4.2351    1.7736 C.cat     1 <0>         0.2952
     16 O1          3.4490    3.4808   -0.5834 O.3       1 <0>        -0.2823
     17 C12         4.5194    4.1017   -1.1463 C.ar      1 <0>         0.1230
     18 C13         5.7319    3.4364   -1.2518 C.ar      1 <0>        -0.2041
     19 C14         6.8186    4.0689   -1.8241 C.ar      1 <0>        -0.0621
     20 C15         6.6987    5.3655   -2.2923 C.ar      1 <0>        -0.0557
     21 C16         5.4905    6.0316   -2.1884 C.ar      1 <0>        -0.0584
     22 C17         4.3989    5.4003   -1.6215 C.ar      1 <0>        -0.0554
     23 Cl3         2.8810    6.2335   -1.4976 Cl        1 <0>        -0.0240
     24 Cl4         8.0663    6.1578   -3.0104 Cl        1 <0>        -0.0350
     25 H1         -0.9313    1.7221   -0.6333 H         1 <0>         0.1515
     26 H2          1.1156    3.0503   -0.3047 H         1 <0>         0.1540
     27 H3          1.3923   -1.8566   -0.6442 H         1 <0>         0.1556
     28 H4          4.4815    1.6917   -0.6214 H         1 <0>         0.1127
     29 H5          3.2005    2.7647    1.9313 H         1 <0>         0.1404
     30 H6          4.0556    1.2085    1.8070 H         1 <0>         0.1439
     31 H7          6.7254    1.2766    1.4989 H         1 <0>         0.2239
     32 H8          8.4680    3.2027    1.8798 H         1 <0>         0.2266
     33 H9          4.6591    4.9769    1.8033 H         1 <0>         0.2566
     34 H10         5.8264    2.4245   -0.8864 H         1 <0>         0.1435
     35 H11         7.7628    3.5509   -1.9059 H         1 <0>         0.1486
     36 H12         5.3990    7.0437   -2.5540 H         1 <0>         0.1590
     37 H13         7.1168    5.3454    2.0501 H         1 <0>         0.4663
@<TRIPOS>BOND
     1    1    6 ar
     2    1    2 ar
     3    1   25 1
     4    2    3 ar
     5    2   26 1
     6    3    4 ar
     7    3    9 1
     8    4    5 ar
     9    4    8 1
    10    5    6 ar
    11    5   27 1
    12    6    7 1
    13    9   10 1
    14    9   16 1
    15    9   28 1
    16   10   11 1
    17   10   29 1
    18   10   30 1
    19   11   15 1
    20   11   12 1
    21   12   13 2
    22   12   31 1
    23   13   14 1
    24   13   32 1
    25   14   15 2
    26   14   37 1
    27   15   33 1
    28   16   17 1
    29   17   22 ar
    30   17   18 ar
    31   18   19 ar
    32   18   34 1
    33   19   20 ar
    34   19   35 1
    35   20   21 ar
    36   20   24 1
    37   21   22 ar
    38   21   36 1
    39   22   23 1
@<TRIPOS>MOLECULE
CHEMBL270902
   36    38     0     0     0
SMALL
USER_CHARGES

@<TRIPOS>ATOM
      1 C1          0.0071    1.2900    0.2705 C.ar      1 <0>        -0.1030
      2 C2          1.1746    2.0241    0.1744 C.ar      1 <0>        -0.0613
      3 C3          2.3935    1.3777    0.0958 C.ar      1 <0>        -0.0904
      4 C4          2.4462   -0.0050    0.1136 C.ar      1 <0>        -0.0137
      5 C5          1.2785   -0.7400    0.2102 C.ar      1 <0>        -0.0999
      6 C6          0.0585   -0.0923    0.2884 C.ar      1 <0>        -0.0145
      7 Cl1        -1.4076   -1.0141    0.4096 Cl        1 <0>        -0.0465
      8 Cl2         3.9774   -0.8169    0.0143 Cl        1 <0>        -0.0486
      9 C7          3.6656    2.1787   -0.0099 C.3       1 <0>         0.1078
     10 C8          4.0583    2.3204   -1.4818 C.3       1 <0>         0.0929
     11 N1          5.3552    2.9949   -1.5785 N.pl3     1 <0>        -0.4618
     12 C9          5.5640    4.3447   -1.6689 C.2       1 <0>        -0.0427
     13 C10         6.8962    4.5292   -1.7368 C.2       1 <0>        -0.0231
     14 N2          7.4849    3.3250   -1.6891 N.2       1 <0>        -0.4807
     15 C11         6.5682    2.4015   -1.5892 C.2       1 <0>         0.1738
     16 O1          3.4606    3.4751    0.5553 O.3       1 <0>        -0.2855
     17 C12         4.4818    3.9994    1.2835 C.ar      1 <0>         0.1447
     18 C13         5.6978    3.3358    1.3526 C.ar      1 <0>        -0.1751
     19 C14         6.7345    3.8701    2.0930 C.ar      1 <0>        -0.0541
     20 C15         6.5610    5.0668    2.7659 C.ar      1 <0>        -0.0561
     21 C16         5.3492    5.7309    2.6988 C.ar      1 <0>        -0.0645
     22 C17         4.3109    5.2026    1.9542 C.ar      1 <0>        -0.0556
     23 Cl3         2.7926    6.0395    1.8642 Cl        1 <0>        -0.0428
     24 Cl4         7.8655    5.7353    3.6960 Cl        1 <0>        -0.0532
     25 H1         -0.9448    1.7958    0.3360 H         1 <0>         0.1468
     26 H2          1.1340    3.1033    0.1605 H         1 <0>         0.1526
     27 H3          1.3191   -1.8192    0.2241 H         1 <0>         0.1511
     28 H4          4.4624    1.6683    0.5312 H         1 <0>         0.1055
     29 H5          4.1281    1.3320   -1.9360 H         1 <0>         0.1137
     30 H6          3.3034    2.9079   -2.0043 H         1 <0>         0.1100
     31 H7          4.8059    5.1138   -1.6834 H         1 <0>         0.1707
     32 H8          7.4020    5.4802   -1.8157 H         1 <0>         0.1677
     33 H9          6.7496    1.3386   -1.5279 H         1 <0>         0.2007
     34 H10         5.8340    2.4017    0.8280 H         1 <0>         0.1412
     35 H11         7.6812    3.3532    2.1471 H         1 <0>         0.1428
     36 H12         5.2155    6.6646    3.2249 H         1 <0>         0.1512
@<TRIPOS>BOND
     1    1    6 ar
     2    1    2 ar
     3    1   25 1
     4    2    3 ar
     5    2   26 1
     6    3    4 ar
     7    3    9 1
     8    4    5 ar
     9    4    8 1
    10    5    6 ar
    11    5   27 1
    12    6    7 1
    13    9   10 1
    14    9   16 1
    15    9   28 1
    16   10   11 1
    17   10   29 1
    18   10   30 1
    19   11   15 1
    20   11   12 1
    21   12   13 2
    22   12   31 1
    23   13   14 1
    24   13   32 1
    25   14   15 2
    26   15   33 1
    27   16   17 1
    28   17   22 ar
    29   17   18 ar
    30   18   19 ar
    31   18   34 1
    32   19   20 ar
    33   19   35 1
    34   20   21 ar
    35   20   24 1
    36   21   22 ar
    37   21   36 1
    38   22   23 1
@<TRIPOS>MOLECULE
CHEMBL270902
   37    39     0     0     0
SMALL
USER_CHARGES

@<TRIPOS>ATOM
      1 C1          0.0071    1.2900    0.2705 C.ar      1 <0>        -0.1002
      2 C2          1.1746    2.0241    0.1745 C.ar      1 <0>        -0.0566
      3 C3          2.3935    1.3777    0.0958 C.ar      1 <0>        -0.1074
      4 C4          2.4462   -0.0050    0.1136 C.ar      1 <0>        -0.0107
      5 C5          1.2785   -0.7400    0.2102 C.ar      1 <0>        -0.0975
      6 C6          0.0585   -0.0923    0.2884 C.ar      1 <0>        -0.0062
      7 Cl1        -1.4076   -1.0141    0.4097 Cl        1 <0>        -0.0323
      8 Cl2         3.9774   -0.8169    0.0143 Cl        1 <0>        -0.0537
      9 C7          3.6656    2.1787   -0.0099 C.3       1 <0>         0.1111
     10 C8          4.0583    2.3204   -1.4818 C.3       1 <0>         0.0776
     11 N1          5.3552    2.9949   -1.5785 N.pl3     1 <0>        -0.4101
     12 C9          5.5640    4.3447   -1.6684 C.2       1 <0>         0.0352
     13 C10         6.8962    4.5292   -1.7365 C.2       1 <0>         0.0099
     14 N2          7.4849    3.3249   -1.6894 N.pl3     1 <0>        -0.4681
     15 C11         6.5682    2.4014   -1.5897 C.cat     1 <0>         0.2781
     16 O1          3.4606    3.4751    0.5553 O.3       1 <0>        -0.2812
     17 C12         4.4818    3.9994    1.2835 C.ar      1 <0>         0.1331
     18 C13         5.6978    3.3358    1.3526 C.ar      1 <0>        -0.2052
     19 C14         6.7345    3.8701    2.0930 C.ar      1 <0>        -0.0637
     20 C15         6.5610    5.0668    2.7659 C.ar      1 <0>        -0.0528
     21 C16         5.3492    5.7309    2.6988 C.ar      1 <0>        -0.0551
     22 C17         4.3109    5.2026    1.9542 C.ar      1 <0>        -0.0502
     23 Cl3         2.7926    6.0395    1.8642 Cl        1 <0>        -0.0246
     24 Cl4         7.8655    5.7353    3.6960 Cl        1 <0>        -0.0366
     25 H1         -0.9448    1.7958    0.3361 H         1 <0>         0.1517
     26 H2          1.1340    3.1033    0.1605 H         1 <0>         0.1544
     27 H3          1.3191   -1.8192    0.2241 H         1 <0>         0.1554
     28 H4          4.4624    1.6683    0.5312 H         1 <0>         0.1101
     29 H5          4.1281    1.3320   -1.9360 H         1 <0>         0.1404
     30 H6          3.3034    2.9078   -2.0043 H         1 <0>         0.1440
     31 H7          4.8059    5.1138   -1.6825 H         1 <0>         0.2224
     32 H8          7.4020    5.4802   -1.8152 H         1 <0>         0.2257
     33 H9          6.7495    1.3385   -1.5288 H         1 <0>         0.2591
     34 H10         5.8340    2.4017    0.8280 H         1 <0>         0.1337
     35 H11         7.6812    3.3532    2.1471 H         1 <0>         0.1448
     36 H12         5.2155    6.6646    3.2249 H         1 <0>         0.1589
     37 H13         8.4412    3.1658   -1.7208 H         1 <0>         0.4666
@<TRIPOS>BOND
     1    1    6 ar
     2    1    2 ar
     3    1   25 1
     4    2    3 ar
     5    2   26 1
     6    3    4 ar
     7    3    9 1
     8    4    5 ar
     9    4    8 1
    10    5    6 ar
    11    5   27 1
    12    6    7 1
    13    9   10 1
    14    9   16 1
    15    9   28 1
    16   10   11 1
    17   10   29 1
    18   10   30 1
    19   11   15 1
    20   11   12 1
    21   12   13 2
    22   12   31 1
    23   13   14 1
    24   13   32 1
    25   14   15 2
    26   14   37 1
    27   15   33 1
    28   16   17 1
    29   17   22 ar
    30   17   18 ar
    31   18   19 ar
    32   18   34 1
    33   19   20 ar
    34   19   35 1
    35   20   21 ar
    36   20   24 1
    37   21   22 ar
    38   21   36 1
    39   22   23 1
@<TRIPOS>MOLECULE
CHEMBL227356
   62    66     0     0     0
SMALL
USER_CHARGES

@<TRIPOS>ATOM
      1 C1          3.6294   -4.7179   -2.3421 C.ar      1 <0>        -0.0832
      2 C2          3.0470   -5.9723   -2.3877 C.ar      1 <0>        -0.1046
      3 C3          1.8612   -6.2101   -1.7246 C.ar      1 <0>        -0.0720
      4 C4          1.2485   -5.1815   -1.0057 C.ar      1 <0>        -0.0318
      5 C5          1.8419   -3.9184   -0.9635 C.ar      1 <0>        -0.0686
      6 C6          3.0279   -3.6944   -1.6318 C.ar      1 <0>        -0.0685
      7 C7          1.1879   -2.8022   -0.1907 C.3       1 <0>         0.1136
      8 N1          1.3581   -3.0372    1.2452 N.am      1 <0>        -0.5467
      9 C8          2.5965   -3.2463    1.7481 C.2       1 <0>         0.5612
     10 O1          3.5785   -3.2428    1.0280 O.2       1 <0>        -0.4792
     11 C9          2.7141   -3.4769    3.1919 C.ar      1 <0>        -0.1862
     12 C10         3.9503   -3.7014    3.8018 C.ar      1 <0>        -0.0658
     13 C11         4.0125   -3.9113    5.1499 C.ar      1 <0>         0.0761
     14 C12         2.8490   -3.9035    5.9264 C.ar      1 <0>         0.1993
     15 C13         1.6133   -3.6834    5.3430 C.ar      1 <0>        -0.0988
     16 C14         1.5310   -3.4668    3.9674 C.ar      1 <0>         0.1742
     17 N2          0.3425   -3.2465    3.3546 N.2       1 <0>        -0.5489
     18 C15         0.2667   -3.0379    2.0645 C.2       1 <0>         0.6314
     19 N3         -0.9686   -2.8151    1.5091 N.pl3     1 <0>        -0.6154
     20 C16        -1.1664   -1.7359    0.5319 C.3       1 <0>         0.1085
     21 C17        -2.3214   -0.8477    1.0053 C.3       1 <0>        -0.1303
     22 C18        -3.5604   -1.7136    1.2448 C.3       1 <0>        -0.1413
     23 C19        -3.2624   -2.7420    2.3383 C.3       1 <0>         0.0052
     24 H1         -2.9728   -2.2261    3.2538 H         1 <0>         0.1507
     25 C20        -2.1168   -3.6552    1.8759 C.3       1 <0>         0.1241
     26 N4         -4.4622   -3.5513    2.5902 N.4       1 <0>        -0.6325
     27 N5          2.9348   -4.1196    7.2997 N.pl3     1 <0>        -0.6812
     28 C21         3.1084   -2.9961    8.2339 C.3       1 <0>         0.1078
     29 C22         2.0508   -3.1167    9.3370 C.3       1 <0>         0.0480
     30 O2          2.1088   -4.4281    9.9033 O.3       1 <0>        -0.3768
     31 C23         1.8088   -5.4780    8.9805 C.3       1 <0>         0.0483
     32 C24         2.8484   -5.4777    7.8596 C.3       1 <0>         0.1078
     33 F1          5.2087   -4.1288    5.7388 F         1 <0>        -0.1231
     34 C25         0.0170   -5.4210   -0.3153 C.1       1 <0>         0.2708
     35 N6         -0.9599   -5.6110    0.2325 N.1       1 <0>        -0.4339
     36 H2          4.5601   -4.5382   -2.8597 H         1 <0>         0.1384
     37 H3          3.5218   -6.7669   -2.9441 H         1 <0>         0.1400
     38 H4          1.4073   -7.1894   -1.7616 H         1 <0>         0.1353
     39 H5          3.4881   -2.7178   -1.6000 H         1 <0>         0.1382
     40 H6          1.6510   -1.8532   -0.4610 H         1 <0>         0.1054
     41 H7          0.1249   -2.7688   -0.4299 H         1 <0>         0.1177
     42 H8          4.8534   -3.7095    3.2097 H         1 <0>         0.1538
     43 H9          0.7191   -3.6791    5.9486 H         1 <0>         0.1453
     44 H10        -0.2561   -1.1413    0.4549 H         1 <0>         0.0977
     45 H11        -1.4093   -2.1636   -0.4407 H         1 <0>         0.0841
     46 H12        -2.0406   -0.3496    1.9333 H         1 <0>         0.0853
     47 H13        -2.5417   -0.1004    0.2429 H         1 <0>         0.1041
     48 H14        -4.3906   -1.0806    1.5581 H         1 <0>         0.0951
     49 H15        -3.8259   -2.2306    0.3227 H         1 <0>         0.0909
     50 H16        -2.4357   -4.2363    1.0106 H         1 <0>         0.1008
     51 H17        -1.8338   -4.3274    2.6860 H         1 <0>         0.1102
     52 H18        -4.7293   -4.0296    1.7429 H         1 <0>         0.4341
     53 H19        -4.2653   -4.2292    3.3112 H         1 <0>         0.4391
     54 H20         4.1046   -3.0356    8.6746 H         1 <0>         0.0683
     55 H21         2.9786   -2.0533    7.7025 H         1 <0>         0.0804
     56 H22         2.2473   -2.3763   10.1124 H         1 <0>         0.1042
     57 H23         1.0612   -2.9469    8.9128 H         1 <0>         0.0516
     58 H24         1.8313   -6.4363    9.4994 H         1 <0>         0.1041
     59 H25         0.8184   -5.3167    8.5550 H         1 <0>         0.0507
     60 H26         2.5465   -6.1775    7.0803 H         1 <0>         0.0796
     61 H27         3.8180   -5.7713    8.2619 H         1 <0>         0.0680
     62 H28        -5.2160   -2.9512    2.8897 H         1 <0>         0.4394
@<TRIPOS>BOND
     1    1    6 ar
     2    1    2 ar
     3    1   36 1
     4    2    3 ar
     5    2   37 1
     6    3    4 ar
     7    3   38 1
     8    4    5 ar
     9    4   34 1
    10    5    6 ar
    11    5    7 1
    12    6   39 1
    13    7    8 1
    14    7   40 1
    15    7   41 1
    16    8   18 1
    17    8    9 am
    18    9   10 2
    19    9   11 1
    20   11   16 ar
    21   11   12 ar
    22   12   13 ar
    23   12   42 1
    24   13   14 ar
    25   13   33 1
    26   14   15 ar
    27   14   27 1
    28   15   16 ar
    29   15   43 1
    30   16   17 1
    31   17   18 2
    32   18   19 1
    33   19   25 1
    34   19   20 1
    35   20   21 1
    36   20   44 1
    37   20   45 1
    38   21   22 1
    39   21   46 1
    40   21   47 1
    41   22   23 1
    42   22   48 1
    43   22   49 1
    44   23   24 1
    45   23   25 1
    46   23   26 1
    47   25   50 1
    48   25   51 1
    49   26   52 1
    50   26   53 1
    51   26   62 1
    52   27   32 1
    53   27   28 1
    54   28   29 1
    55   28   54 1
    56   28   55 1
    57   29   30 1
    58   29   56 1
    59   29   57 1
    60   30   31 1
    61   31   32 1
    62   31   58 1
    63   31   59 1
    64   32   60 1
    65   32   61 1
    66   34   35 3
@<TRIPOS>MOLECULE
CHEMBL1094458
   71    75     0     0     0
SMALL
USER_CHARGES

@<TRIPOS>ATOM
      1 C1          0.2011    0.9284    0.2361 C.3       1 <0>        -0.1151
      2 C2          0.1957   -0.5779    0.2812 C.ar      1 <0>         0.0140
      3 C3          0.2167   -1.2963   -0.8805 C.ar      1 <0>        -0.1896
      4 C4          0.2119   -2.6890   -0.8528 C.ar      1 <0>         0.2096
      5 C5          0.1857   -3.3641    0.3574 C.ar      1 <0>        -0.1880
      6 C6          0.1642   -2.6462    1.5434 C.ar      1 <0>         0.0899
      7 C7          0.1749   -1.2404    1.5123 C.ar      1 <0>         0.0341
      8 N1          0.1567   -0.8100    2.7995 N.2       1 <0>        -0.5206
      9 C8          0.1412   -1.8428    3.6099 C.2       1 <0>         0.3945
     10 N2          0.1360   -3.0039    2.8793 N.pl3     1 <0>        -0.5859
     11 H1          0.1256   -3.9069    3.2335 H         1 <0>         0.4343
     12 C9          0.1199   -1.7664    5.0800 C.2       1 <0>        -0.3085
     13 C10        -0.0076   -0.5302    5.7290 C.2       1 <0>         0.3625
     14 C11        -0.0241   -0.5024    7.1365 C.2       1 <0>        -0.2749
     15 C12         0.0820   -1.6534    7.8350 C.2       1 <0>         0.1905
     16 N3          0.2061   -2.8518    7.2062 N.am      1 <0>        -0.6199
     17 H2          0.2806   -3.6612    7.7355 H         1 <0>         0.4213
     18 C13         0.2217   -2.9380    5.8630 C.2       1 <0>         0.5589
     19 O1          0.3288   -4.0262    5.3223 O.2       1 <0>        -0.5696
     20 N4         -0.1146    0.6369    5.0023 N.pl3     1 <0>        -0.6833
     21 C14        -0.1248    1.9301    5.6906 C.3       1 <0>         0.0749
     22 C15        -0.2517    3.0547    4.6610 C.3       1 <0>         0.1444
     23 H3          0.5440    2.9621    3.9218 H         1 <0>         0.1186
     24 C16        -0.1390    4.3871    5.3561 C.ar      1 <0>        -0.1097
     25 C17        -1.2301    4.9135    6.0225 C.ar      1 <0>        -0.1059
     26 C18        -1.1276    6.1355    6.6603 C.ar      1 <0>        -0.0999
     27 C19         0.0660    6.8322    6.6318 C.ar      1 <0>        -0.1037
     28 C20         1.1580    6.3061    5.9653 C.ar      1 <0>        -0.0315
     29 C21         1.0565    5.0799    5.3322 C.ar      1 <0>        -0.0974
     30 Cl1         2.6573    7.1805    5.9292 Cl        1 <0>        -0.0610
     31 O2         -1.5202    2.9632    4.0094 O.3       1 <0>        -0.5436
     32 N5          0.2332   -3.4092   -2.0516 N.pl3     1 <0>        -0.6420
     33 C22         0.1389   -2.7218   -3.3488 C.3       1 <0>         0.1017
     34 C23         1.2760   -3.2205   -4.2466 C.3       1 <0>        -0.0228
     35 N6          1.2245   -4.6855   -4.3318 N.4       1 <0>        -0.3813
     36 C24         1.4782   -5.2726   -3.0101 C.3       1 <0>        -0.0281
     37 C25         0.3568   -4.8751   -2.0512 C.3       1 <0>         0.1011
     38 C26         2.2448   -5.1553   -5.2784 C.3       1 <0>        -0.0066
     39 C27         2.1109   -6.6682   -5.4633 C.3       1 <0>        -0.1870
     40 C28         3.1737   -7.1575   -6.4492 C.3       1 <0>         0.0683
     41 F1          3.0512   -8.5409   -6.6183 F         1 <0>        -0.2015
     42 H4          1.2300    1.2883    0.2408 H         1 <0>         0.0740
     43 H5         -0.2979    1.2664   -0.6721 H         1 <0>         0.0670
     44 H6         -0.3248    1.3199    1.1068 H         1 <0>         0.0784
     45 H7          0.2369   -0.7798   -1.8288 H         1 <0>         0.1276
     46 H8          0.1817   -4.4439    0.3764 H         1 <0>         0.1207
     47 H9         -0.1211    0.4387    7.6572 H         1 <0>         0.1552
     48 H10         0.0683   -1.6208    8.9145 H         1 <0>         0.1759
     49 H11        -0.1829    0.6015    4.0353 H         1 <0>         0.4329
     50 H12        -0.9702    1.9693    6.3776 H         1 <0>         0.0791
     51 H13         0.8032    2.0518    6.2491 H         1 <0>         0.0861
     52 H14        -2.1631    4.3699    6.0444 H         1 <0>         0.1285
     53 H15        -1.9802    6.5462    7.1806 H         1 <0>         0.1373
     54 H16         0.1458    7.7874    7.1296 H         1 <0>         0.1375
     55 H17         1.9100    4.6665    4.8154 H         1 <0>         0.1357
     56 H18        -2.2761    3.0376    4.6079 H         1 <0>         0.3774
     57 H19        -0.8208   -2.9473   -3.8139 H         1 <0>         0.0875
     58 H20         0.2338   -1.6460   -3.2010 H         1 <0>         0.1292
     59 H21         1.1654   -2.7943   -5.2437 H         1 <0>         0.1414
     60 H22         2.2332   -2.9145   -3.8245 H         1 <0>         0.1339
     61 H23         1.5166   -6.3585   -3.0961 H         1 <0>         0.1408
     62 H24         2.4293   -4.9045   -2.6254 H         1 <0>         0.1341
     63 H25         0.5956   -5.2222   -1.0460 H         1 <0>         0.1260
     64 H26        -0.5805   -5.3217   -2.3831 H         1 <0>         0.0865
     65 H27         2.1061   -4.6582   -6.2385 H         1 <0>         0.1367
     66 H28         3.2361   -4.9232   -4.8890 H         1 <0>         0.1338
     67 H29         2.2496   -7.1653   -4.5032 H         1 <0>         0.0991
     68 H30         1.1197   -6.9003   -5.8528 H         1 <0>         0.0999
     69 H31         3.0350   -6.6605   -7.4093 H         1 <0>         0.0868
     70 H32         4.1649   -6.9254   -6.0598 H         1 <0>         0.0862
     71 H33         0.3123   -4.9704   -4.6556 H         1 <0>         0.4236
@<TRIPOS>BOND
     1    1    2 1
     2    1   42 1
     3    1   43 1
     4    1   44 1
     5    2    7 ar
     6    2    3 ar
     7    3    4 ar
     8    3   45 1
     9    4    5 ar
    10    4   32 1
    11    5    6 ar
    12    5   46 1
    13    6   10 1
    14    6    7 ar
    15    7    8 1
    16    8    9 2
    17    9   10 1
    18    9   12 1
    19   10   11 1
    20   12   18 1
    21   12   13 2
    22   13   14 1
    23   13   20 1
    24   14   15 2
    25   14   47 1
    26   15   16 1
    27   15   48 1
    28   16   17 1
    29   16   18 am
    30   18   19 2
    31   20   21 1
    32   20   49 1
    33   21   22 1
    34   21   50 1
    35   21   51 1
    36   22   23 1
    37   22   24 1
    38   22   31 1
    39   24   29 ar
    40   24   25 ar
    41   25   26 ar
    42   25   52 1
    43   26   27 ar
    44   26   53 1
    45   27   28 ar
    46   27   54 1
    47   28   29 ar
    48   28   30 1
    49   29   55 1
    50   31   56 1
    51   32   37 1
    52   32   33 1
    53   33   34 1
    54   33   57 1
    55   33   58 1
    56   34   35 1
    57   34   59 1
    58   34   60 1
    59   35   36 1
    60   35   38 1
    61   35   71 1
    62   36   37 1
    63   36   61 1
    64   36   62 1
    65   37   63 1
    66   37   64 1
    67   38   39 1
    68   38   65 1
    69   38   66 1
    70   39   40 1
    71   39   67 1
    72   39   68 1
    73   40   41 1
    74   40   69 1
    75   40   70 1
@<TRIPOS>MOLECULE
CHEMBL1094458
   70    74     0     0     0
SMALL
USER_CHARGES

@<TRIPOS>ATOM
      1 C1          0.1910    0.9773    0.2173 C.3       1 <0>        -0.1097
      2 C2          0.1846   -0.5292    0.2577 C.ar      1 <0>         0.0102
      3 C3          0.2045   -1.2438   -0.9063 C.ar      1 <0>        -0.1939
      4 C4          0.1989   -2.6366   -0.8831 C.ar      1 <0>         0.2394
      5 C5          0.1730   -3.3156    0.3250 C.ar      1 <0>        -0.2132
      6 C6          0.1526   -2.6014    1.5133 C.ar      1 <0>         0.1013
      7 C7          0.1642   -1.1955    1.4867 C.ar      1 <0>         0.0125
      8 N1          0.1471   -0.7692    2.7752 N.2       1 <0>        -0.5152
      9 C8          0.1314   -1.8046    3.5823 C.2       1 <0>         0.3709
     10 N2          0.1251   -2.9633    2.8481 N.pl3     1 <0>        -0.5880
     11 H1          0.1143   -3.8674    3.1994 H         1 <0>         0.4310
     12 C9          0.1110   -1.7328    5.0527 C.2       1 <0>        -0.2937
     13 C10        -0.0147   -0.4985    5.7057 C.2       1 <0>         0.3529
     14 C11        -0.0303   -0.4752    7.1132 C.2       1 <0>        -0.2713
     15 C12         0.0749   -1.6285    7.8081 C.2       1 <0>         0.1815
     16 N3          0.1972   -2.8251    7.1754 N.am      1 <0>        -0.6204
     17 H2          0.2711   -3.6363    7.7021 H         1 <0>         0.4188
     18 C13         0.2119   -2.9070    5.8319 C.2       1 <0>         0.5551
     19 O1          0.3175   -3.9936    5.2877 O.2       1 <0>        -0.5664
     20 N4         -0.1207    0.6710    4.9827 N.pl3     1 <0>        -0.6862
     21 C14        -0.1295    1.9620    5.6752 C.3       1 <0>         0.0781
     22 C15        -0.2556    3.0901    4.6493 C.3       1 <0>         0.1422
     23 H3          0.5398    2.9991    3.9096 H         1 <0>         0.1200
     24 C16        -0.1414    4.4201    5.3486 C.ar      1 <0>        -0.1060
     25 C17        -1.2318    4.9454    6.0170 C.ar      1 <0>        -0.1060
     26 C18        -1.1279    6.1652    6.6586 C.ar      1 <0>        -0.1012
     27 C19         0.0663    6.8609    6.6321 C.ar      1 <0>        -0.1059
     28 C20         1.1576    6.3359    5.9636 C.ar      1 <0>        -0.0314
     29 C21         1.0548    5.1118    5.3266 C.ar      1 <0>        -0.0968
     30 Cl1         2.6577    7.2089    5.9299 Cl        1 <0>        -0.0631
     31 O2         -1.5243    3.0018    3.9978 O.3       1 <0>        -0.5410
     32 N5          0.2190   -3.3530   -2.0842 N.pl3     1 <0>        -0.6286
     33 C22         0.3365   -4.8191   -2.0867 C.3       1 <0>         0.1265
     34 C23        -0.7808   -5.3954   -2.9629 C.3       1 <0>         0.0402
     35 N6         -0.7324   -4.7661   -4.2894 N.3       1 <0>        -0.5358
     36 C24        -0.9856   -3.3216   -4.2034 C.3       1 <0>         0.0351
     37 C25         0.1172   -2.6608   -3.3779 C.3       1 <0>         0.1280
     38 C26        -1.6748   -5.4116   -5.2131 C.3       1 <0>         0.0575
     39 C27        -1.4233   -4.9052   -6.6347 C.3       1 <0>        -0.1512
     40 C28        -2.4048   -5.5775   -7.5967 C.3       1 <0>         0.0624
     41 F1         -2.1749   -5.1144   -8.8967 F         1 <0>        -0.2172
     42 H4          1.2200    1.3366    0.2225 H         1 <0>         0.0700
     43 H5         -0.3084    1.3185   -0.6895 H         1 <0>         0.0641
     44 H6         -0.3342    1.3664    1.0896 H         1 <0>         0.0734
     45 H7          0.2244   -0.7244   -1.8530 H         1 <0>         0.1279
     46 H8          0.1683   -4.3954    0.3406 H         1 <0>         0.1202
     47 H9         -0.1259    0.4644    7.6371 H         1 <0>         0.1522
     48 H10         0.0618   -1.5993    8.8876 H         1 <0>         0.1722
     49 H11        -0.1894    0.6388    4.0157 H         1 <0>         0.4343
     50 H12        -0.9746    1.9998    6.3625 H         1 <0>         0.0759
     51 H13         0.7988    2.0810    6.2339 H         1 <0>         0.0832
     52 H14        -2.1653    4.4026    6.0374 H         1 <0>         0.1286
     53 H15        -1.9800    6.5751    7.1805 H         1 <0>         0.1361
     54 H16         0.1472    7.8144    7.1329 H         1 <0>         0.1360
     55 H17         1.9077    4.6992    4.8083 H         1 <0>         0.1368
     56 H18        -2.2800    3.0751    4.5967 H         1 <0>         0.3755
     57 H19         1.3060   -5.1080   -2.4926 H         1 <0>         0.0702
     58 H20         0.2352   -5.1963   -1.0691 H         1 <0>         0.0866
     59 H21        -0.6437   -6.4718   -3.0658 H         1 <0>         0.0857
     60 H22        -1.7468   -5.1940   -2.4998 H         1 <0>         0.0394
     61 H23        -0.9970   -2.8940   -5.2060 H         1 <0>         0.0887
     62 H24        -1.9487   -3.1491   -3.7230 H         1 <0>         0.0393
     63 H25        -0.1290   -1.6118   -3.2135 H         1 <0>         0.0876
     64 H26         1.0652   -2.7383   -3.9102 H         1 <0>         0.0696
     65 H27        -1.5321   -6.4918   -5.1816 H         1 <0>         0.0799
     66 H28        -2.6960   -5.1713   -4.9171 H         1 <0>         0.0377
     67 H29        -1.5660   -3.8250   -6.6662 H         1 <0>         0.0751
     68 H30        -0.4022   -5.1455   -6.9307 H         1 <0>         0.0848
     69 H31        -2.2621   -6.6577   -7.5653 H         1 <0>         0.0753
     70 H32        -3.4260   -5.3372   -7.3007 H         1 <0>         0.0727
@<TRIPOS>BOND
     1    1    2 1
     2    1   42 1
     3    1   43 1
     4    1   44 1
     5    2    7 ar
     6    2    3 ar
     7    3    4 ar
     8    3   45 1
     9    4    5 ar
    10    4   32 1
    11    5    6 ar
    12    5   46 1
    13    6   10 1
    14    6    7 ar
    15    7    8 1
    16    8    9 2
    17    9   10 1
    18    9   12 1
    19   10   11 1
    20   12   18 1
    21   12   13 2
    22   13   14 1
    23   13   20 1
    24   14   15 2
    25   14   47 1
    26   15   16 1
    27   15   48 1
    28   16   17 1
    29   16   18 am
    30   18   19 2
    31   20   21 1
    32   20   49 1
    33   21   22 1
    34   21   50 1
    35   21   51 1
    36   22   23 1
    37   22   24 1
    38   22   31 1
    39   24   29 ar
    40   24   25 ar
    41   25   26 ar
    42   25   52 1
    43   26   27 ar
    44   26   53 1
    45   27   28 ar
    46   27   54 1
    47   28   29 ar
    48   28   30 1
    49   29   55 1
    50   31   56 1
    51   32   37 1
    52   32   33 1
    53   33   34 1
    54   33   57 1
    55   33   58 1
    56   34   35 1
    57   34   59 1
    58   34   60 1
    59   35   36 1
    60   35   38 1
    61   36   37 1
    62   36   61 1
    63   36   62 1
    64   37   63 1
    65   37   64 1
    66   38   39 1
    67   38   65 1
    68   38   66 1
    69   39   40 1
    70   39   67 1
    71   39   68 1
    72   40   41 1
    73   40   69 1
    74   40   70 1
@<TRIPOS>MOLECULE
CHEMBL104
   42    45     0     0     0
SMALL
USER_CHARGES

@<TRIPOS>ATOM
      1 C1         -0.1404    1.0961   -0.4391 C.ar      1 <0>        -0.1020
      2 C2          0.9979    1.8788   -0.4898 C.ar      1 <0>        -0.1176
      3 C3          2.2443    1.2953   -0.3597 C.ar      1 <0>        -0.1015
      4 C4          2.3524   -0.0709   -0.1784 C.ar      1 <0>        -0.0957
      5 C5          1.2140   -0.8534   -0.1268 C.ar      1 <0>        -0.0879
      6 C6         -0.0323   -0.2701   -0.2583 C.ar      1 <0>        -0.1206
      7 C7          3.7112   -0.7071   -0.0376 C.3       1 <0>         0.3033
      8 C8          3.5548   -2.1991    0.1055 C.ar      1 <0>        -0.0980
      9 C9          4.1018   -3.0454   -0.8408 C.ar      1 <0>        -0.0924
     10 C10         3.9584   -4.4140   -0.7096 C.ar      1 <0>        -0.1192
     11 C11         3.2684   -4.9364    0.3683 C.ar      1 <0>        -0.1040
     12 C12         2.7222   -4.0902    1.3152 C.ar      1 <0>        -0.1220
     13 C13         2.8693   -2.7218    1.1862 C.ar      1 <0>        -0.0909
     14 C14         4.5372   -0.4037   -1.2609 C.ar      1 <0>        -0.0899
     15 C15         5.7856    0.1744   -1.1262 C.ar      1 <0>        -0.0993
     16 C16         6.5434    0.4528   -2.2482 C.ar      1 <0>        -0.1105
     17 C17         6.0533    0.1533   -3.5058 C.ar      1 <0>        -0.0985
     18 C18         4.8053   -0.4246   -3.6418 C.ar      1 <0>        -0.1111
     19 C19         4.0487   -0.7087   -2.5187 C.ar      1 <0>        -0.0192
     20 Cl1         2.4837   -1.4408   -2.6883 Cl        1 <0>        -0.0484
     21 N1          4.3811   -0.1702    1.1495 N.pl3     1 <0>        -0.4460
     22 C20         5.5751   -0.5924    1.6690 C.2       1 <0>        -0.0513
     23 C21         5.8188    0.1680    2.7534 C.2       1 <0>        -0.0258
     24 N2          4.8014    1.0309    2.8923 N.2       1 <0>        -0.4890
     25 C22         3.9390    0.8376    1.9322 C.2       1 <0>         0.1875
     26 H1         -1.1143    1.5526   -0.5363 H         1 <0>         0.1257
     27 H2          0.9135    2.9461   -0.6315 H         1 <0>         0.1275
     28 H3          3.1337    1.9067   -0.4001 H         1 <0>         0.1221
     29 H4          1.2985   -1.9209    0.0142 H         1 <0>         0.1329
     30 H5         -0.9216   -0.8816   -0.2183 H         1 <0>         0.1255
     31 H6          4.6409   -2.6372   -1.6830 H         1 <0>         0.1253
     32 H7          4.3851   -5.0750   -1.4493 H         1 <0>         0.1258
     33 H8          3.1557   -6.0056    0.4705 H         1 <0>         0.1257
     34 H9          2.1828   -4.4983    2.1571 H         1 <0>         0.1266
     35 H10         2.4458   -2.0608    1.9279 H         1 <0>         0.1217
     36 H11         6.1689    0.4089   -0.1441 H         1 <0>         0.1411
     37 H12         7.5185    0.9047   -2.1424 H         1 <0>         0.1336
     38 H13         6.6456    0.3714   -4.3821 H         1 <0>         0.1361
     39 H14         4.4225   -0.6582   -4.6243 H         1 <0>         0.1382
     40 H15         6.2011   -1.3835    1.2836 H         1 <0>         0.1702
     41 H16         6.6821    0.0956    3.3983 H         1 <0>         0.1703
     42 H17         3.0222    1.3901    1.7888 H         1 <0>         0.2017
@<TRIPOS>BOND
     1    1    6 ar
     2    1    2 ar
     3    1   26 1
     4    2    3 ar
     5    2   27 1
     6    3    4 ar
     7    3   28 1
     8    4    5 ar
     9    4    7 1
    10    5    6 ar
    11    5   29 1
    12    6   30 1
    13    7    8 1
    14    7   14 1
    15    7   21 1
    16    8   13 ar
    17    8    9 ar
    18    9   10 ar
    19    9   31 1
    20   10   11 ar
    21   10   32 1
    22   11   12 ar
    23   11   33 1
    24   12   13 ar
    25   12   34 1
    26   13   35 1
    27   14   19 ar
    28   14   15 ar
    29   15   16 ar
    30   15   36 1
    31   16   17 ar
    32   16   37 1
    33   17   18 ar
    34   17   38 1
    35   18   19 ar
    36   18   39 1
    37   19   20 1
    38   21   25 1
    39   21   22 1
    40   22   23 2
    41   22   40 1
    42   23   24 1
    43   23   41 1
    44   24   25 2
    45   25   42 1
@<TRIPOS>MOLECULE
CHEMBL104
   43    46     0     0     0
SMALL
USER_CHARGES

@<TRIPOS>ATOM
      1 C1          0.5987    1.7832    1.4981 C.ar      1 <0>        -0.0892
      2 C2          0.3739    1.0091    0.3751 C.ar      1 <0>        -0.1131
      3 C3          1.3811    0.2033   -0.1220 C.ar      1 <0>        -0.1073
      4 C4          2.6134    0.1720    0.5037 C.ar      1 <0>        -0.1169
      5 C5          2.8385    0.9468    1.6262 C.ar      1 <0>        -0.0809
      6 C6          1.8308    1.7515    2.1240 C.ar      1 <0>        -0.1100
      7 C7          3.7112   -0.7071   -0.0376 C.3       1 <0>         0.3108
      8 C8          4.1045   -0.2308   -1.4122 C.ar      1 <0>        -0.1114
      9 C9          4.1390   -1.1216   -2.4687 C.ar      1 <0>        -0.1224
     10 C10         4.4997   -0.6846   -3.7296 C.ar      1 <0>        -0.1050
     11 C11         4.8255    0.6431   -3.9340 C.ar      1 <0>        -0.0966
     12 C12         4.7901    1.5341   -2.8777 C.ar      1 <0>        -0.1040
     13 C13         4.4252    1.0980   -1.6177 C.ar      1 <0>        -0.0870
     14 C14         4.9061   -0.6400    0.8783 C.ar      1 <0>        -0.1243
     15 C15         6.0946   -0.0984    0.4255 C.ar      1 <0>        -0.0806
     16 C16         7.1906   -0.0368    1.2654 C.ar      1 <0>        -0.1064
     17 C17         7.0990   -0.5167    2.5588 C.ar      1 <0>        -0.0779
     18 C18         5.9114   -1.0584    3.0126 C.ar      1 <0>        -0.1060
     19 C19         4.8121   -1.1151    2.1740 C.ar      1 <0>        -0.0235
     20 Cl1         3.3179   -1.7894    2.7455 Cl        1 <0>        -0.0546
     21 N1          3.2345   -2.0901   -0.1178 N.pl3     1 <0>        -0.3928
     22 C20         1.9543   -2.5219    0.1018 C.2       1 <0>         0.0325
     23 C21         1.9573   -3.8567   -0.0767 C.2       1 <0>         0.0033
     24 N2          3.2053   -4.2297   -0.3965 N.pl3     1 <0>        -0.4715
     25 C22         3.9747   -3.1761   -0.4280 C.cat     1 <0>         0.2859
     26 H1         -0.1868    2.4161    1.8838 H         1 <0>         0.1340
     27 H2         -0.5889    1.0335   -0.1137 H         1 <0>         0.1343
     28 H3          1.2053   -0.4020   -0.9989 H         1 <0>         0.1246
     29 H4          3.8010    0.9218    2.1154 H         1 <0>         0.1290
     30 H5          2.0066    2.3566    3.0012 H         1 <0>         0.1338
     31 H6          3.8845   -2.1589   -2.3090 H         1 <0>         0.1110
     32 H7          4.5274   -1.3807   -4.5549 H         1 <0>         0.1325
     33 H8          5.1080    0.9843   -4.9190 H         1 <0>         0.1349
     34 H9          5.0450    2.5713   -3.0374 H         1 <0>         0.1371
     35 H10         4.3939    1.7949   -0.7931 H         1 <0>         0.1317
     36 H11         6.1669    0.2763   -0.5848 H         1 <0>         0.1476
     37 H12         8.1191    0.3861    0.9110 H         1 <0>         0.1431
     38 H13         7.9558   -0.4686    3.2145 H         1 <0>         0.1451
     39 H14         5.8400   -1.4335    4.0228 H         1 <0>         0.1446
     40 H15         1.1050   -1.9099    0.3675 H         1 <0>         0.2211
     41 H16         1.1044   -4.5120    0.0207 H         1 <0>         0.2258
     42 H17         5.0293   -3.1735   -0.6609 H         1 <0>         0.2540
     43 H18         3.4903   -5.1387   -0.5793 H         1 <0>         0.4647
@<TRIPOS>BOND
     1    1    6 ar
     2    1    2 ar
     3    1   26 1
     4    2    3 ar
     5    2   27 1
     6    3    4 ar
     7    3   28 1
     8    4    5 ar
     9    4    7 1
    10    5    6 ar
    11    5   29 1
    12    6   30 1
    13    7    8 1
    14    7   14 1
    15    7   21 1
    16    8   13 ar
    17    8    9 ar
    18    9   10 ar
    19    9   31 1
    20   10   11 ar
    21   10   32 1
    22   11   12 ar
    23   11   33 1
    24   12   13 ar
    25   12   34 1
    26   13   35 1
    27   14   19 ar
    28   14   15 ar
    29   15   16 ar
    30   15   36 1
    31   16   17 ar
    32   16   37 1
    33   17   18 ar
    34   17   38 1
    35   18   19 ar
    36   18   39 1
    37   19   20 1
    38   21   25 1
    39   21   22 1
    40   22   23 2
    41   22   40 1
    42   23   24 1
    43   23   41 1
    44   24   25 2
    45   24   43 1
    46   25   42 1
@<TRIPOS>MOLECULE
CHEMBL231306
   54    58     0     0     0
SMALL
USER_CHARGES

@<TRIPOS>ATOM
      1 C1         -0.0479    1.4981    0.0087 C.3       1 <0>        -0.1106
      2 C2          0.0094   -0.0078    0.0011 C.ar      1 <0>        -0.0073
      3 C3          0.0373   -0.6845   -1.1850 C.ar      1 <0>        -0.1421
      4 C4          0.0902   -2.0757   -1.2061 C.ar      1 <0>         0.1468
      5 C5          0.1153   -2.7926   -0.0207 C.ar      1 <0>        -0.1264
      6 C6          0.0874   -2.1181    1.1899 C.ar      1 <0>         0.0694
      7 C7          0.0398   -0.7126    1.2085 C.ar      1 <0>         0.0624
      8 N1          0.0286   -0.3283    2.5095 N.2       1 <0>        -0.5226
      9 C8          0.0710   -1.3886    3.2833 C.2       1 <0>         0.3969
     10 N2          0.1004   -2.5226    2.5129 N.pl3     1 <0>        -0.5818
     11 H1          0.1342   -3.4369    2.8352 H         1 <0>         0.4357
     12 C9          0.0739   -1.3639    4.7552 C.2       1 <0>        -0.3054
     13 C10         0.1531   -0.1478    5.4489 C.2       1 <0>         0.3616
     14 C11         0.1530   -0.1697    6.8565 C.2       1 <0>        -0.2744
     15 C12         0.0776   -1.3477    7.5128 C.2       1 <0>         0.1887
     16 N3          0.0009   -2.5264    6.8407 N.am      1 <0>        -0.6201
     17 H2         -0.0522   -3.3562    7.3404 H         1 <0>         0.4205
     18 C13        -0.0088   -2.5645    5.4953 C.2       1 <0>         0.5579
     19 O1         -0.0841   -3.6351    4.9155 O.2       1 <0>        -0.5652
     20 N4          0.2300    1.0470    4.7651 N.pl3     1 <0>        -0.6843
     21 C14         0.4324    2.2990    5.4985 C.3       1 <0>         0.0758
     22 C15         0.4807    3.4665    4.5109 C.3       1 <0>         0.1428
     23 C16         0.8108    4.7371    5.2509 C.ar      1 <0>        -0.1072
     24 C17        -0.1770    5.4068    5.9492 C.ar      1 <0>        -0.1056
     25 C18         0.1249    6.5722    6.6282 C.ar      1 <0>        -0.1008
     26 C19         1.4147    7.0692    6.6091 C.ar      1 <0>        -0.1052
     27 C20         2.4034    6.3997    5.9107 C.ar      1 <0>        -0.0315
     28 C21         2.1018    5.2297    5.2362 C.ar      1 <0>        -0.0970
     29 Cl1         4.0234    7.0232    5.8863 Cl        1 <0>        -0.0625
     30 O2         -0.7904    3.6035    3.8727 O.3       1 <0>        -0.5404
     31 N5          0.1177   -2.7547   -2.4336 N.pl3     1 <0>        -0.4054
     32 C22         0.1641   -4.1130   -2.6124 C.2       1 <0>        -0.0557
     33 C23         0.1757   -4.3313   -3.9413 C.2       1 <0>        -0.0218
     34 N6          0.1377   -3.1426   -4.5612 N.2       1 <0>        -0.4856
     35 C24         0.0976   -2.1907   -3.6688 C.2       1 <0>         0.1902
     36 H3          0.9652    1.9002    0.0074 H         1 <0>         0.0741
     37 H4         -0.5780    1.8459   -0.8780 H         1 <0>         0.0694
     38 H5         -0.5723    1.8372    0.9020 H         1 <0>         0.0785
     39 H6          0.0177   -0.1355   -2.1149 H         1 <0>         0.1377
     40 H7          0.1559   -3.8717   -0.0399 H         1 <0>         0.1304
     41 H8          0.2136    0.7549    7.4112 H         1 <0>         0.1543
     42 H9          0.0786   -1.3531    8.5928 H         1 <0>         0.1745
     43 H10         0.1502    1.0586    3.7985 H         1 <0>         0.4347
     44 H11        -0.3909    2.4479    6.1972 H         1 <0>         0.0786
     45 H12         1.3718    2.2497    6.0492 H         1 <0>         0.0845
     46 H13         1.2461    3.2748    3.7589 H         1 <0>         0.1191
     47 H14        -1.1850    5.0192    5.9638 H         1 <0>         0.1289
     48 H15        -0.6471    7.0948    7.1734 H         1 <0>         0.1365
     49 H16         1.6504    7.9803    7.1391 H         1 <0>         0.1364
     50 H17         2.8743    4.7042    4.6944 H         1 <0>         0.1364
     51 H18        -1.5204    3.7760    4.4829 H         1 <0>         0.3764
     52 H19         0.1869   -4.8639   -1.8366 H         1 <0>         0.1760
     53 H20         0.2098   -5.2967   -4.4243 H         1 <0>         0.1747
     54 H21         0.0574   -1.1319   -3.8778 H         1 <0>         0.2094
@<TRIPOS>BOND
     1    1    2 1
     2    1   36 1
     3    1   37 1
     4    1   38 1
     5    2    7 ar
     6    2    3 ar
     7    3    4 ar
     8    3   39 1
     9    4    5 ar
    10    4   31 1
    11    5    6 ar
    12    5   40 1
    13    6   10 1
    14    6    7 ar
    15    7    8 1
    16    8    9 2
    17    9   10 1
    18    9   12 1
    19   10   11 1
    20   12   18 1
    21   12   13 2
    22   13   14 1
    23   13   20 1
    24   14   15 2
    25   14   41 1
    26   15   16 1
    27   15   42 1
    28   16   17 1
    29   16   18 am
    30   18   19 2
    31   20   21 1
    32   20   43 1
    33   21   22 1
    34   21   44 1
    35   21   45 1
    36   22   23 1
    37   22   30 1
    38   22   46 1
    39   23   28 ar
    40   23   24 ar
    41   24   25 ar
    42   24   47 1
    43   25   26 ar
    44   25   48 1
    45   26   27 ar
    46   26   49 1
    47   27   28 ar
    48   27   29 1
    49   28   50 1
    50   30   51 1
    51   31   35 1
    52   31   32 1
    53   32   33 2
    54   32   52 1
    55   33   34 1
    56   33   53 1
    57   34   35 2
    58   35   54 1
@<TRIPOS>MOLECULE
CHEMBL231306
   54    58     0     0     0
SMALL
USER_CHARGES

@<TRIPOS>ATOM
      1 C1         -0.0482    1.4981    0.0087 C.3       1 <0>        -0.1081
      2 C2          0.0090   -0.0078    0.0011 C.ar      1 <0>        -0.0067
      3 C3          0.0367   -0.6844   -1.1850 C.ar      1 <0>        -0.1425
      4 C4          0.0895   -2.0756   -1.2062 C.ar      1 <0>         0.1468
      5 C5          0.1146   -2.7926   -0.0207 C.ar      1 <0>        -0.1267
      6 C6          0.0870   -2.1181    1.1899 C.ar      1 <0>         0.0693
      7 C7          0.0395   -0.7126    1.2085 C.ar      1 <0>         0.0629
      8 N1          0.0284   -0.3283    2.5095 N.2       1 <0>        -0.5211
      9 C8          0.0708   -1.3886    3.2833 C.2       1 <0>         0.3963
     10 N2          0.1000   -2.5226    2.5129 N.pl3     1 <0>        -0.5819
     11 H1          0.1338   -3.4368    2.8351 H         1 <0>         0.4355
     12 C9          0.0738   -1.3638    4.7552 C.2       1 <0>        -0.3051
     13 C10         0.1531   -0.1478    5.4489 C.2       1 <0>         0.3612
     14 C11         0.1531   -0.1697    6.8565 C.2       1 <0>        -0.2744
     15 C12         0.0777   -1.3477    7.5128 C.2       1 <0>         0.1885
     16 N3          0.0009   -2.5264    6.8407 N.am      1 <0>        -0.6201
     17 H2         -0.0522   -3.3562    7.3404 H         1 <0>         0.4205
     18 C13        -0.0089   -2.5645    5.4953 C.2       1 <0>         0.5578
     19 O1         -0.0843   -3.6351    4.9155 O.2       1 <0>        -0.5653
     20 N4          0.2300    1.0470    4.7651 N.pl3     1 <0>        -0.6841
     21 C14         0.4324    2.2990    5.4985 C.3       1 <0>         0.0754
     22 C15         0.4807    3.4665    4.5109 C.3       1 <0>         0.1428
     23 C16         0.6889    4.7543    5.2653 C.ar      1 <0>        -0.1073
     24 C17         1.9677    5.1621    5.5972 C.ar      1 <0>        -0.1049
     25 C18         2.1594    6.3431    6.2891 C.ar      1 <0>        -0.1007
     26 C19         1.0725    7.1172    6.6502 C.ar      1 <0>        -0.1055
     27 C20        -0.2072    6.7098    6.3185 C.ar      1 <0>        -0.0316
     28 C21        -0.3980    5.5304    5.6204 C.ar      1 <0>        -0.0980
     29 Cl1        -1.5726    7.6814    6.7716 Cl        1 <0>        -0.0627
     30 O2          1.5601    3.2712    3.5950 O.3       1 <0>        -0.5396
     31 N5          0.1169   -2.7547   -2.4336 N.pl3     1 <0>        -0.4052
     32 C22         0.1631   -4.1129   -2.6125 C.2       1 <0>        -0.0557
     33 C23         0.1746   -4.3313   -3.9414 C.2       1 <0>        -0.0219
     34 N6          0.1367   -3.1425   -4.5612 N.2       1 <0>        -0.4856
     35 C24         0.0967   -2.1907   -3.6688 C.2       1 <0>         0.1901
     36 H3          0.9650    1.9002    0.0074 H         1 <0>         0.0771
     37 H4         -0.5783    1.8460   -0.8779 H         1 <0>         0.0684
     38 H5         -0.5725    1.8373    0.9020 H         1 <0>         0.0740
     39 H6          0.0171   -0.1354   -2.1148 H         1 <0>         0.1376
     40 H7          0.1552   -3.8717   -0.0400 H         1 <0>         0.1302
     41 H8          0.2138    0.7549    7.4112 H         1 <0>         0.1544
     42 H9          0.0788   -1.3531    8.5928 H         1 <0>         0.1745
     43 H10         0.1502    1.0586    3.7985 H         1 <0>         0.4353
     44 H11        -0.3909    2.4479    6.1972 H         1 <0>         0.0847
     45 H12         1.3718    2.2497    6.0492 H         1 <0>         0.0781
     46 H13        -0.4586    3.5157    3.9603 H         1 <0>         0.1194
     47 H14         2.8171    4.5573    5.3159 H         1 <0>         0.1288
     48 H15         3.1585    6.6611    6.5480 H         1 <0>         0.1363
     49 H16         1.2223    8.0397    7.1915 H         1 <0>         0.1363
     50 H17        -1.3966    5.2140    5.3573 H         1 <0>         0.1365
     51 H18         2.4288    3.2178    4.0164 H         1 <0>         0.3761
     52 H19         0.1859   -4.8639   -1.8366 H         1 <0>         0.1760
     53 H20         0.2086   -5.2966   -4.4244 H         1 <0>         0.1746
     54 H21         0.0566   -1.1318   -3.8778 H         1 <0>         0.2094
@<TRIPOS>BOND
     1    1    2 1
     2    1   36 1
     3    1   37 1
     4    1   38 1
     5    2    7 ar
     6    2    3 ar
     7    3    4 ar
     8    3   39 1
     9    4    5 ar
    10    4   31 1
    11    5    6 ar
    12    5   40 1
    13    6   10 1
    14    6    7 ar
    15    7    8 1
    16    8    9 2
    17    9   10 1
    18    9   12 1
    19   10   11 1
    20   12   18 1
    21   12   13 2
    22   13   14 1
    23   13   20 1
    24   14   15 2
    25   14   41 1
    26   15   16 1
    27   15   42 1
    28   16   17 1
    29   16   18 am
    30   18   19 2
    31   20   21 1
    32   20   43 1
    33   21   22 1
    34   21   44 1
    35   21   45 1
    36   22   23 1
    37   22   30 1
    38   22   46 1
    39   23   28 ar
    40   23   24 ar
    41   24   25 ar
    42   24   47 1
    43   25   26 ar
    44   25   48 1
    45   26   27 ar
    46   26   49 1
    47   27   28 ar
    48   27   29 1
    49   28   50 1
    50   30   51 1
    51   31   35 1
    52   31   32 1
    53   32   33 2
    54   32   52 1
    55   33   34 1
    56   33   53 1
    57   34   35 2
    58   35   54 1
@<TRIPOS>MOLECULE
CHEMBL480965
   75    80     0     0     0
SMALL
USER_CHARGES

@<TRIPOS>ATOM
      1 C1          0.1710    1.0706    0.1810 C.3       1 <0>        -0.1135
      2 C2          0.1629   -0.4361    0.2125 C.ar      1 <0>         0.0128
      3 C3          0.1804   -1.1438   -0.9558 C.ar      1 <0>        -0.1925
      4 C4          0.1731   -2.5367   -0.9409 C.ar      1 <0>         0.2204
      5 C5          0.1478   -3.2228    0.2631 C.ar      1 <0>        -0.1990
      6 C6          0.1298   -2.5157    1.4557 C.ar      1 <0>         0.0933
      7 C7          0.1431   -1.1098    1.4375 C.ar      1 <0>         0.0262
      8 N1          0.1281   -0.6911    2.7286 N.2       1 <0>        -0.5189
      9 C8          0.1121   -1.7313    3.5295 C.2       1 <0>         0.3872
     10 N2          0.1034   -2.8856    2.7884 N.pl3     1 <0>        -0.5871
     11 H1          0.0920   -3.7918    3.1343 H         1 <0>         0.4329
     12 C9          0.0936   -1.6682    5.0003 C.2       1 <0>        -0.3046
     13 C10        -0.0282   -0.4376    5.6609 C.2       1 <0>         0.3598
     14 C11        -0.0421   -0.4227    7.0685 C.2       1 <0>        -0.2738
     15 C12         0.0610   -1.5804    7.7563 C.2       1 <0>         0.1880
     16 N3          0.1796   -2.7734    7.1163 N.am      1 <0>        -0.6200
     17 H2          0.2521   -3.5879    7.6380 H         1 <0>         0.4205
     18 C13         0.1925   -2.8473    5.7724 C.2       1 <0>         0.5578
     19 O1          0.2947   -3.9309    5.2215 O.2       1 <0>        -0.5695
     20 N4         -0.1321    0.7365    4.9450 N.pl3     1 <0>        -0.6840
     21 C14        -0.1380    2.0233    5.6452 C.3       1 <0>         0.0757
     22 C15        -0.2622    3.1578    4.6263 C.3       1 <0>         0.1440
     23 H3          0.5327    3.0696    3.8857 H         1 <0>         0.1191
     24 C16        -0.1450    4.4833    5.3336 C.ar      1 <0>        -0.1090
     25 C17        -1.2340    5.0069    6.0056 C.ar      1 <0>        -0.1061
     26 C18        -1.1273    6.2225    6.6546 C.ar      1 <0>        -0.1003
     27 C19         0.0684    6.9159    6.6317 C.ar      1 <0>        -0.1041
     28 C20         1.1583    6.3927    5.9595 C.ar      1 <0>        -0.0314
     29 C21         1.0526    5.1727    5.3151 C.ar      1 <0>        -0.0972
     30 Cl1         2.6602    7.2628    5.9304 Cl        1 <0>        -0.0610
     31 O2         -1.5314    3.0761    3.9748 O.3       1 <0>        -0.5432
     32 N5          0.1908   -3.2459   -2.1462 N.pl3     1 <0>        -0.6344
     33 C22         0.3085   -4.7105   -2.1514 C.3       1 <0>         0.1266
     34 C23        -0.8432   -5.2948   -2.9752 C.3       1 <0>        -0.1578
     35 C24        -0.8430   -4.6593   -4.3675 C.3       1 <0>         0.0325
     36 C25        -1.0572   -3.1493   -4.2409 C.3       1 <0>        -0.1572
     37 C26         0.0860   -2.5411   -3.4312 C.3       1 <0>         0.1284
     38 N6         -1.9259   -5.2416   -5.1714 N.4       1 <0>        -0.3933
     39 C27        -1.8859   -4.6995   -6.5537 C.3       1 <0>        -0.0059
     40 C28        -2.6525   -5.7664   -7.3751 C.3       1 <0>        -0.1453
     41 C29        -2.2112   -7.0932   -6.7158 C.3       1 <0>        -0.1445
     42 C30        -1.7332   -6.7019   -5.3052 C.3       1 <0>        -0.0091
     43 H4          1.2006    1.4285    0.1871 H         1 <0>         0.0734
     44 H5         -0.3290    1.4178   -0.7231 H         1 <0>         0.0652
     45 H6         -0.3525    1.4551    1.0563 H         1 <0>         0.0766
     46 H7          0.1998   -0.6187   -1.8994 H         1 <0>         0.1274
     47 H8          0.1418   -4.3028    0.2723 H         1 <0>         0.1198
     48 H9         -0.1347    0.5140    7.5980 H         1 <0>         0.1544
     49 H10         0.0493   -1.5577    8.8360 H         1 <0>         0.1750
     50 H11        -0.2013    0.7103    3.9778 H         1 <0>         0.4332
     51 H12        -0.9827    2.0587    6.3332 H         1 <0>         0.0782
     52 H13         0.7909    2.1370    6.2042 H         1 <0>         0.0855
     53 H14        -2.1686    4.4658    6.0232 H         1 <0>         0.1282
     54 H15        -1.9783    6.6310    7.1794 H         1 <0>         0.1370
     55 H16         0.1515    7.8661    7.1382 H         1 <0>         0.1373
     56 H17         1.9045    4.7615    4.7939 H         1 <0>         0.1361
     57 H18        -2.2867    3.1473    4.5746 H         1 <0>         0.3766
     58 H19         1.2602   -4.9990   -2.5977 H         1 <0>         0.0722
     59 H20         0.2534   -5.0850   -1.1292 H         1 <0>         0.1023
     60 H21        -0.7140   -6.3732   -3.0675 H         1 <0>         0.0953
     61 H22        -1.7900   -5.0825   -2.4786 H         1 <0>         0.0905
     62 H23         0.1135   -4.8509   -4.8539 H         1 <0>         0.1362
     63 H24        -1.0802   -2.7006   -5.2340 H         1 <0>         0.0963
     64 H25        -2.0020   -2.9572   -3.7324 H         1 <0>         0.0907
     65 H26        -0.1158   -1.4849   -3.2532 H         1 <0>         0.1042
     66 H27         1.0191   -2.6488   -3.9842 H         1 <0>         0.0717
     67 H28        -2.3942   -3.7367   -6.6042 H         1 <0>         0.1347
     68 H29        -0.8570   -4.6114   -6.9027 H         1 <0>         0.1332
     69 H30        -3.7292   -5.6271   -7.2787 H         1 <0>         0.0975
     70 H31        -2.3510   -5.7370   -8.4222 H         1 <0>         0.1164
     71 H32        -3.0532   -7.7825   -6.6523 H         1 <0>         0.1045
     72 H33        -1.3947   -7.5432   -7.2806 H         1 <0>         0.1034
     73 H34        -0.6781   -6.9494   -5.1886 H         1 <0>         0.1297
     74 H35        -2.3252   -7.2249   -4.5541 H         1 <0>         0.1305
     75 H36        -2.8195   -5.0461   -4.7457 H         1 <0>         0.4244
@<TRIPOS>BOND
     1    1    2 1
     2    1   43 1
     3    1   44 1
     4    1   45 1
     5    2    7 ar
     6    2    3 ar
     7    3    4 ar
     8    3   46 1
     9    4    5 ar
    10    4   32 1
    11    5    6 ar
    12    5   47 1
    13    6   10 1
    14    6    7 ar
    15    7    8 1
    16    8    9 2
    17    9   10 1
    18    9   12 1
    19   10   11 1
    20   12   18 1
    21   12   13 2
    22   13   14 1
    23   13   20 1
    24   14   15 2
    25   14   48 1
    26   15   16 1
    27   15   49 1
    28   16   17 1
    29   16   18 am
    30   18   19 2
    31   20   21 1
    32   20   50 1
    33   21   22 1
    34   21   51 1
    35   21   52 1
    36   22   23 1
    37   22   24 1
    38   22   31 1
    39   24   29 ar
    40   24   25 ar
    41   25   26 ar
    42   25   53 1
    43   26   27 ar
    44   26   54 1
    45   27   28 ar
    46   27   55 1
    47   28   29 ar
    48   28   30 1
    49   29   56 1
    50   31   57 1
    51   32   37 1
    52   32   33 1
    53   33   34 1
    54   33   58 1
    55   33   59 1
    56   34   35 1
    57   34   60 1
    58   34   61 1
    59   35   36 1
    60   35   38 1
    61   35   62 1
    62   36   37 1
    63   36   63 1
    64   36   64 1
    65   37   65 1
    66   37   66 1
    67   38   42 1
    68   38   39 1
    69   38   75 1
    70   39   40 1
    71   39   67 1
    72   39   68 1
    73   40   41 1
    74   40   69 1
    75   40   70 1
    76   41   42 1
    77   41   71 1
    78   41   72 1
    79   42   73 1
    80   42   74 1
@<TRIPOS>MOLECULE
CHEMBL480966
   73    78     0     0     0
SMALL
USER_CHARGES

@<TRIPOS>ATOM
      1 C1          0.1710    1.0706    0.1810 C.3       1 <0>        -0.1100
      2 C2          0.1629   -0.4361    0.2125 C.ar      1 <0>         0.0100
      3 C3          0.1804   -1.1438   -0.9558 C.ar      1 <0>        -0.1935
      4 C4          0.1731   -2.5367   -0.9409 C.ar      1 <0>         0.2395
      5 C5          0.1478   -3.2228    0.2631 C.ar      1 <0>        -0.2128
      6 C6          0.1298   -2.5157    1.4557 C.ar      1 <0>         0.1008
      7 C7          0.1431   -1.1098    1.4375 C.ar      1 <0>         0.0129
      8 N1          0.1281   -0.6911    2.7286 N.2       1 <0>        -0.5154
      9 C8          0.1121   -1.7313    3.5295 C.2       1 <0>         0.3710
     10 N2          0.1034   -2.8856    2.7884 N.pl3     1 <0>        -0.5881
     11 H1          0.0920   -3.7918    3.1343 H         1 <0>         0.4310
     12 C9          0.0936   -1.6682    5.0003 C.2       1 <0>        -0.2938
     13 C10        -0.0282   -0.4376    5.6609 C.2       1 <0>         0.3528
     14 C11        -0.0421   -0.4227    7.0685 C.2       1 <0>        -0.2713
     15 C12         0.0610   -1.5804    7.7563 C.2       1 <0>         0.1814
     16 N3          0.1796   -2.7734    7.1163 N.am      1 <0>        -0.6204
     17 H2          0.2521   -3.5879    7.6380 H         1 <0>         0.4187
     18 C13         0.1925   -2.8473    5.7724 C.2       1 <0>         0.5551
     19 O1          0.2947   -3.9309    5.2215 O.2       1 <0>        -0.5666
     20 N4         -0.1321    0.7365    4.9450 N.pl3     1 <0>        -0.6861
     21 C14        -0.1380    2.0233    5.6452 C.3       1 <0>         0.0781
     22 C15        -0.2622    3.1578    4.6263 C.3       1 <0>         0.1422
     23 H3          0.5327    3.0696    3.8857 H         1 <0>         0.1200
     24 C16        -0.1450    4.4833    5.3336 C.ar      1 <0>        -0.1059
     25 C17        -1.2340    5.0069    6.0056 C.ar      1 <0>        -0.1060
     26 C18        -1.1273    6.2225    6.6546 C.ar      1 <0>        -0.1012
     27 C19         0.0684    6.9159    6.6317 C.ar      1 <0>        -0.1059
     28 C20         1.1583    6.3927    5.9595 C.ar      1 <0>        -0.0315
     29 C21         1.0526    5.1727    5.3151 C.ar      1 <0>        -0.0968
     30 Cl1         2.6602    7.2628    5.9304 Cl        1 <0>        -0.0632
     31 O2         -1.5314    3.0761    3.9748 O.3       1 <0>        -0.5409
     32 N5          0.1908   -3.2459   -2.1462 N.pl3     1 <0>        -0.6272
     33 C22         0.3085   -4.7105   -2.1514 C.3       1 <0>         0.1254
     34 C23        -0.8432   -5.2948   -2.9752 C.3       1 <0>        -0.1435
     35 C24        -0.8430   -4.6593   -4.3675 C.3       1 <0>         0.1476
     36 C25        -1.0572   -3.1493   -4.2409 C.3       1 <0>        -0.1456
     37 C26         0.0860   -2.5411   -3.4312 C.3       1 <0>         0.1261
     38 N6         -1.9229   -5.2400   -5.1692 N.am      1 <0>        -0.7245
     39 C27        -1.8364   -5.2440   -6.5142 C.2       1 <0>         0.5443
     40 O3         -0.8645   -4.7669   -7.0608 O.2       1 <0>        -0.5378
     41 C28        -2.9473   -5.8413   -7.3389 C.3       1 <0>        -0.1990
     42 C29        -2.6461   -7.1345   -8.0990 C.3       1 <0>        -0.1521
     43 C30        -2.7899   -5.8154   -8.8606 C.3       1 <0>        -0.1467
     44 H4          1.2006    1.4285    0.1871 H         1 <0>         0.0699
     45 H5         -0.3290    1.4178   -0.7231 H         1 <0>         0.0643
     46 H6         -0.3525    1.4551    1.0563 H         1 <0>         0.0734
     47 H7          0.1998   -0.6187   -1.8994 H         1 <0>         0.1287
     48 H8          0.1418   -4.3028    0.2723 H         1 <0>         0.1208
     49 H9         -0.1347    0.5140    7.5980 H         1 <0>         0.1521
     50 H10         0.0493   -1.5577    8.8360 H         1 <0>         0.1722
     51 H11        -0.2013    0.7103    3.9778 H         1 <0>         0.4344
     52 H12        -0.9827    2.0587    6.3332 H         1 <0>         0.0759
     53 H13         0.7909    2.1370    6.2042 H         1 <0>         0.0831
     54 H14        -2.1686    4.4658    6.0232 H         1 <0>         0.1286
     55 H15        -1.9783    6.6310    7.1794 H         1 <0>         0.1361
     56 H16         0.1515    7.8661    7.1382 H         1 <0>         0.1360
     57 H17         1.9045    4.7615    4.7939 H         1 <0>         0.1368
     58 H18        -2.2867    3.1473    4.5746 H         1 <0>         0.3755
     59 H19         1.2602   -4.9990   -2.5977 H         1 <0>         0.0657
     60 H20         0.2534   -5.0850   -1.1292 H         1 <0>         0.0891
     61 H21        -0.7140   -6.3732   -3.0675 H         1 <0>         0.0800
     62 H22        -1.7900   -5.0825   -2.4786 H         1 <0>         0.0739
     63 H23         0.1135   -4.8509   -4.8539 H         1 <0>         0.0893
     64 H24        -1.0802   -2.7006   -5.2340 H         1 <0>         0.0791
     65 H25        -2.0020   -2.9572   -3.7324 H         1 <0>         0.0692
     66 H26        -0.1158   -1.4849   -3.2532 H         1 <0>         0.0883
     67 H27         1.0191   -2.6488   -3.9842 H         1 <0>         0.0649
     68 H28        -2.7002   -5.6216   -4.7320 H         1 <0>         0.4012
     69 H29        -3.9519   -5.7171   -6.9347 H         1 <0>         0.1235
     70 H30        -1.6444   -7.5533   -8.0025 H         1 <0>         0.0993
     71 H31        -3.4526   -7.8615   -8.1948 H         1 <0>         0.1053
     72 H32        -3.6910   -5.6745   -9.4574 H         1 <0>         0.1041
     73 H33        -1.8829   -5.3663   -9.2651 H         1 <0>         0.1084
@<TRIPOS>BOND
     1    1    2 1
     2    1   44 1
     3    1   45 1
     4    1   46 1
     5    2    7 ar
     6    2    3 ar
     7    3    4 ar
     8    3   47 1
     9    4    5 ar
    10    4   32 1
    11    5    6 ar
    12    5   48 1
    13    6   10 1
    14    6    7 ar
    15    7    8 1
    16    8    9 2
    17    9   10 1
    18    9   12 1
    19   10   11 1
    20   12   18 1
    21   12   13 2
    22   13   14 1
    23   13   20 1
    24   14   15 2
    25   14   49 1
    26   15   16 1
    27   15   50 1
    28   16   17 1
    29   16   18 am
    30   18   19 2
    31   20   21 1
    32   20   51 1
    33   21   22 1
    34   21   52 1
    35   21   53 1
    36   22   23 1
    37   22   24 1
    38   22   31 1
    39   24   29 ar
    40   24   25 ar
    41   25   26 ar
    42   25   54 1
    43   26   27 ar
    44   26   55 1
    45   27   28 ar
    46   27   56 1
    47   28   29 ar
    48   28   30 1
    49   29   57 1
    50   31   58 1
    51   32   37 1
    52   32   33 1
    53   33   34 1
    54   33   59 1
    55   33   60 1
    56   34   35 1
    57   34   61 1
    58   34   62 1
    59   35   36 1
    60   35   38 1
    61   35   63 1
    62   36   37 1
    63   36   64 1
    64   36   65 1
    65   37   66 1
    66   37   67 1
    67   38   39 am
    68   38   68 1
    69   39   40 2
    70   39   41 1
    71   41   43 1
    72   41   42 1
    73   41   69 1
    74   42   43 1
    75   42   70 1
    76   42   71 1
    77   43   72 1
    78   43   73 1
@<TRIPOS>MOLECULE
CHEMBL520419
   63    67     0     0     0
SMALL
USER_CHARGES

@<TRIPOS>ATOM
      1 C1          0.1710    1.0706    0.1810 C.3       1 <0>        -0.1097
      2 C2          0.1629   -0.4361    0.2125 C.ar      1 <0>         0.0096
      3 C3          0.1804   -1.1438   -0.9558 C.ar      1 <0>        -0.1937
      4 C4          0.1731   -2.5367   -0.9409 C.ar      1 <0>         0.2381
      5 C5          0.1478   -3.2228    0.2631 C.ar      1 <0>        -0.2117
      6 C6          0.1298   -2.5157    1.4557 C.ar      1 <0>         0.1009
      7 C7          0.1431   -1.1098    1.4375 C.ar      1 <0>         0.0134
      8 N1          0.1281   -0.6911    2.7286 N.2       1 <0>        -0.5155
      9 C8          0.1121   -1.7313    3.5295 C.2       1 <0>         0.3714
     10 N2          0.1034   -2.8856    2.7884 N.pl3     1 <0>        -0.5879
     11 H1          0.0920   -3.7918    3.1343 H         1 <0>         0.4313
     12 C9          0.0936   -1.6682    5.0003 C.2       1 <0>        -0.2937
     13 C10        -0.0282   -0.4376    5.6609 C.2       1 <0>         0.3529
     14 C11        -0.0421   -0.4227    7.0685 C.2       1 <0>        -0.2714
     15 C12         0.0610   -1.5804    7.7563 C.2       1 <0>         0.1816
     16 N3          0.1796   -2.7734    7.1163 N.am      1 <0>        -0.6203
     17 H2          0.2521   -3.5879    7.6380 H         1 <0>         0.4188
     18 C13         0.1925   -2.8473    5.7724 C.2       1 <0>         0.5550
     19 O1          0.2947   -3.9309    5.2215 O.2       1 <0>        -0.5662
     20 N4         -0.1321    0.7365    4.9450 N.pl3     1 <0>        -0.6862
     21 C14        -0.1380    2.0233    5.6452 C.3       1 <0>         0.0781
     22 C15        -0.2622    3.1578    4.6263 C.3       1 <0>         0.1422
     23 H3          0.5327    3.0696    3.8857 H         1 <0>         0.1199
     24 C16        -0.1450    4.4833    5.3336 C.ar      1 <0>        -0.1059
     25 C17        -1.2340    5.0069    6.0056 C.ar      1 <0>        -0.1059
     26 C18        -1.1273    6.2225    6.6546 C.ar      1 <0>        -0.1012
     27 C19         0.0684    6.9159    6.6317 C.ar      1 <0>        -0.1059
     28 C20         1.1583    6.3927    5.9595 C.ar      1 <0>        -0.0315
     29 C21         1.0526    5.1727    5.3151 C.ar      1 <0>        -0.0969
     30 Cl1         2.6602    7.2628    5.9304 Cl        1 <0>        -0.0633
     31 O2         -1.5314    3.0761    3.9748 O.3       1 <0>        -0.5410
     32 N5          0.1908   -3.2459   -2.1462 N.pl3     1 <0>        -0.6282
     33 C22         0.3085   -4.7105   -2.1514 C.3       1 <0>         0.1240
     34 C23        -0.8432   -5.2948   -2.9752 C.3       1 <0>        -0.1305
     35 C24        -0.8430   -4.6593   -4.3675 C.3       1 <0>         0.1066
     36 C25        -1.0572   -3.1493   -4.2409 C.3       1 <0>        -0.1698
     37 C26         0.0860   -2.5411   -3.4312 C.3       1 <0>         0.1253
     38 O3         -1.8964   -5.2257   -5.1495 O.3       1 <0>        -0.5677
     39 H4          1.2006    1.4285    0.1871 H         1 <0>         0.0698
     40 H5         -0.3290    1.4178   -0.7231 H         1 <0>         0.0641
     41 H6         -0.3525    1.4551    1.0563 H         1 <0>         0.0736
     42 H7          0.1998   -0.6187   -1.8994 H         1 <0>         0.1282
     43 H8          0.1418   -4.3028    0.2723 H         1 <0>         0.1213
     44 H9         -0.1347    0.5140    7.5980 H         1 <0>         0.1521
     45 H10         0.0493   -1.5577    8.8360 H         1 <0>         0.1722
     46 H11        -0.2013    0.7103    3.9778 H         1 <0>         0.4343
     47 H12        -0.9827    2.0587    6.3332 H         1 <0>         0.0759
     48 H13         0.7909    2.1370    6.2042 H         1 <0>         0.0831
     49 H14        -2.1686    4.4658    6.0232 H         1 <0>         0.1287
     50 H15        -1.9783    6.6310    7.1794 H         1 <0>         0.1361
     51 H16         0.1515    7.8661    7.1382 H         1 <0>         0.1360
     52 H17         1.9045    4.7615    4.7939 H         1 <0>         0.1367
     53 H18        -2.2867    3.1473    4.5746 H         1 <0>         0.3756
     54 H19         1.2602   -4.9990   -2.5977 H         1 <0>         0.0646
     55 H20         0.2534   -5.0850   -1.1292 H         1 <0>         0.0899
     56 H21        -0.7140   -6.3732   -3.0675 H         1 <0>         0.0803
     57 H22        -1.7900   -5.0825   -2.4786 H         1 <0>         0.0744
     58 H23         0.1135   -4.8509   -4.8539 H         1 <0>         0.0558
     59 H24        -1.0802   -2.7006   -5.2340 H         1 <0>         0.0763
     60 H25        -2.0020   -2.9572   -3.7324 H         1 <0>         0.0758
     61 H26        -0.1158   -1.4849   -3.2532 H         1 <0>         0.0881
     62 H27         1.0191   -2.6488   -3.9842 H         1 <0>         0.0629
     63 H28        -1.9560   -4.8689   -6.0463 H         1 <0>         0.3787
@<TRIPOS>BOND
     1    1    2 1
     2    1   39 1
     3    1   40 1
     4    1   41 1
     5    2    7 ar
     6    2    3 ar
     7    3    4 ar
     8    3   42 1
     9    4    5 ar
    10    4   32 1
    11    5    6 ar
    12    5   43 1
    13    6   10 1
    14    6    7 ar
    15    7    8 1
    16    8    9 2
    17    9   10 1
    18    9   12 1
    19   10   11 1
    20   12   18 1
    21   12   13 2
    22   13   14 1
    23   13   20 1
    24   14   15 2
    25   14   44 1
    26   15   16 1
    27   15   45 1
    28   16   17 1
    29   16   18 am
    30   18   19 2
    31   20   21 1
    32   20   46 1
    33   21   22 1
    34   21   47 1
    35   21   48 1
    36   22   23 1
    37   22   24 1
    38   22   31 1
    39   24   29 ar
    40   24   25 ar
    41   25   26 ar
    42   25   49 1
    43   26   27 ar
    44   26   50 1
    45   27   28 ar
    46   27   51 1
    47   28   29 ar
    48   28   30 1
    49   29   52 1
    50   31   53 1
    51   32   37 1
    52   32   33 1
    53   33   34 1
    54   33   54 1
    55   33   55 1
    56   34   35 1
    57   34   56 1
    58   34   57 1
    59   35   36 1
    60   35   38 1
    61   35   58 1
    62   36   37 1
    63   36   59 1
    64   36   60 1
    65   37   61 1
    66   37   62 1
    67   38   63 1
@<TRIPOS>MOLECULE
CHEMBL271864
   69    74     0     0     0
SMALL
USER_CHARGES

@<TRIPOS>ATOM
      1 C1         -0.6422    1.7717   -0.1531 C.3       1 <0>        -0.1564
      2 C2         -0.2411    0.2952   -0.1601 C.3       1 <0>        -0.0245
      3 C3          0.7229    0.0231    0.9965 C.3       1 <0>        -0.1548
      4 C4         -1.4715   -0.5603   -0.0004 C.2       1 <0>        -0.0148
      5 C5         -2.3712   -0.5421    1.0824 C.2       1 <0>        -0.0962
      6 C6         -3.3505   -1.4828    0.8197 C.2       1 <0>         0.1112
      7 N1         -3.0855   -2.0641   -0.3632 N.pl3     1 <0>        -0.2266
      8 C7         -1.9351   -1.5066   -0.8892 C.2       1 <0>        -0.1046
      9 C8         -1.4723   -1.9713   -2.1441 C.2       1 <0>         0.5373
     10 N2         -2.1516   -2.9160   -2.7731 N.2       1 <0>        -0.6183
     11 C9         -3.2605   -3.4409   -2.2549 C.2       1 <0>         0.3405
     12 N3         -3.7367   -3.0644   -1.1002 N.2       1 <0>        -0.3463
     13 N4         -0.3260   -1.4443   -2.7048 N.pl3     1 <0>        -0.6127
     14 C10         0.0516   -1.8116   -4.0025 C.ar      1 <0>         0.0933
     15 C11        -0.8875   -2.3354   -4.8736 C.ar      1 <0>        -0.0394
     16 C12        -0.5076   -2.7003   -6.1673 C.ar      1 <0>        -0.1634
     17 C13         0.8205   -2.5339   -6.5744 C.ar      1 <0>         0.1841
     18 C14         1.7507   -2.0099   -5.6967 C.ar      1 <0>        -0.1766
     19 C15         1.3709   -1.6441   -4.4172 C.ar      1 <0>         0.1340
     20 F1          2.2837   -1.1273   -3.5658 F         1 <0>        -0.1203
     21 F2          1.1935   -2.8855   -7.8244 F         1 <0>        -0.0995
     22 C16        -1.5037   -3.2599   -7.1014 C.2       1 <0>         0.5666
     23 O1         -1.1708   -3.5768   -8.2270 O.2       1 <0>        -0.5122
     24 N5         -2.7825   -3.4196   -6.7067 N.am      1 <0>        -0.6949
     25 C17        -3.7713   -3.9751   -7.6340 C.3       1 <0>         0.0777
     26 C18        -5.1428   -3.2994   -7.6923 C.3       1 <0>        -0.1916
     27 C19        -4.9931   -4.6707   -7.0304 C.3       1 <0>        -0.1858
     28 C20        -2.2852    0.3224    2.2785 C.2       1 <0>         0.2431
     29 N6         -1.3602    1.2175    2.5241 N.2       1 <0>        -0.2399
     30 N7         -1.6002    1.7810    3.6555 N.2       1 <0>        -0.3294
     31 C21        -2.6881    1.2679    4.1770 C.2       1 <0>         0.4128
     32 O2         -3.1490    0.3393    3.3172 O.3       1 <0>        -0.2408
     33 N8         -3.2600    1.6192    5.3856 N.pl3     1 <0>        -0.5762
     34 C22        -4.4835    0.9553    5.8558 C.3       1 <0>         0.1267
     35 C23        -4.2372    0.4088    7.2656 C.3       1 <0>        -0.1608
     36 C24        -3.7503    1.5432    8.1702 C.3       1 <0>         0.0261
     37 C25        -2.4303    2.0980    7.6298 C.3       1 <0>        -0.1617
     38 C26        -2.6527    2.6593    6.2270 C.3       1 <0>         0.1406
     39 N9         -3.5448    1.0299    9.5312 N.4       1 <0>        -0.6361
     40 H1          0.2477    2.3904   -0.2686 H         1 <0>         0.0665
     41 H2         -1.3289    1.9655   -0.9771 H         1 <0>         0.0498
     42 H3         -1.1310    2.0110    0.7913 H         1 <0>         0.0891
     43 H4          0.2477    0.0559   -1.1045 H         1 <0>         0.0609
     44 H5          0.2340    0.2624    1.9409 H         1 <0>         0.0865
     45 H6          1.0086   -1.0288    0.9915 H         1 <0>         0.0494
     46 H7          1.6127    0.6419    0.8810 H         1 <0>         0.0669
     47 H8         -4.1894   -1.7129    1.4597 H         1 <0>         0.1910
     48 H9         -3.7802   -4.2099   -2.8071 H         1 <0>         0.2271
     49 H10         0.2179   -0.8197   -2.1999 H         1 <0>         0.4299
     50 H11        -1.9113   -2.4620   -4.5540 H         1 <0>         0.1824
     51 H12         2.7759   -1.8820   -6.0114 H         1 <0>         0.1671
     52 H13        -3.0481   -3.1668   -5.8087 H         1 <0>         0.4009
     53 H14        -3.3694   -4.3800   -8.5628 H         1 <0>         0.1423
     54 H15        -5.3093   -2.4416   -7.0408 H         1 <0>         0.0964
     55 H16        -5.6434   -3.2595   -8.6597 H         1 <0>         0.1058
     56 H17        -5.3953   -5.5329   -7.5624 H         1 <0>         0.1071
     57 H18        -5.0612   -4.7150   -5.9434 H         1 <0>         0.0972
     58 H19        -5.3028    1.6738    5.8803 H         1 <0>         0.0906
     59 H20        -4.7348    0.1342    5.1844 H         1 <0>         0.1054
     60 H21        -5.1652   -0.0014    7.6640 H         1 <0>         0.1075
     61 H22        -3.4804   -0.3746    7.2251 H         1 <0>         0.0952
     62 H23        -4.4967    2.3372    8.1906 H         1 <0>         0.1480
     63 H24        -2.0722    2.8900    8.2875 H         1 <0>         0.1101
     64 H25        -1.6905    1.2987    7.5859 H         1 <0>         0.0963
     65 H26        -1.6965    2.9622    5.8004 H         1 <0>         0.1204
     66 H27        -3.3194    3.5199    6.2825 H         1 <0>         0.0893
     67 H28        -2.8543    0.2944    9.5126 H         1 <0>         0.4346
     68 H29        -3.2238    1.7776   10.1277 H         1 <0>         0.4386
     69 H30        -4.4152    0.6651    9.8880 H         1 <0>         0.4378
@<TRIPOS>BOND
     1    1    2 1
     2    1   40 1
     3    1   41 1
     4    1   42 1
     5    2    3 1
     6    2    4 1
     7    2   43 1
     8    3   44 1
     9    3   45 1
    10    3   46 1
    11    4    8 2
    12    4    5 1
    13    5    6 2
    14    5   28 1
    15    6    7 1
    16    6   47 1
    17    7   12 1
    18    7    8 1
    19    8    9 1
    20    9   10 2
    21    9   13 1
    22   10   11 1
    23   11   12 2
    24   11   48 1
    25   13   14 1
    26   13   49 1
    27   14   19 ar
    28   14   15 ar
    29   15   16 ar
    30   15   50 1
    31   16   17 ar
    32   16   22 1
    33   17   18 ar
    34   17   21 1
    35   18   19 ar
    36   18   51 1
    37   19   20 1
    38   22   23 2
    39   22   24 am
    40   24   25 1
    41   24   52 1
    42   25   27 1
    43   25   26 1
    44   25   53 1
    45   26   27 1
    46   26   54 1
    47   26   55 1
    48   27   56 1
    49   27   57 1
    50   28   32 1
    51   28   29 2
    52   29   30 1
    53   30   31 2
    54   31   32 1
    55   31   33 1
    56   33   38 1
    57   33   34 1
    58   34   35 1
    59   34   58 1
    60   34   59 1
    61   35   36 1
    62   35   60 1
    63   35   61 1
    64   36   37 1
    65   36   39 1
    66   36   62 1
    67   37   38 1
    68   37   63 1
    69   37   64 1
    70   38   65 1
    71   38   66 1
    72   39   67 1
    73   39   68 1
    74   39   69 1
@<TRIPOS>MOLECULE
CHEMBL1209623
   40    42     0     0     0
SMALL
USER_CHARGES

@<TRIPOS>ATOM
      1 C1         -2.3396    1.5825   -1.2809 C.3       1 <0>        -0.1477
      2 C2         -1.8520    0.1329   -1.3247 C.3       1 <0>        -0.0974
      3 C3         -0.7220    0.0056   -2.3483 C.3       1 <0>        -0.1592
      4 C4         -1.3365   -0.2737    0.0572 C.3       1 <0>        -0.1173
      5 C5         -0.9666   -1.7583    0.0470 C.3       1 <0>        -0.3645
      6 N1         -2.1793   -2.5692   -0.1199 N.pl3     1 <0>        -0.4286
      7 C6         -2.8287   -2.7791   -1.2859 C.2       1 <0>         0.2015
      8 N2         -3.8709   -3.5290   -1.0526 N.2       1 <0>        -0.4814
      9 C7         -3.9173   -3.8262    0.2542 C.2       1 <0>         0.0087
     10 C8         -2.8616   -3.2375    0.8538 C.2       1 <0>        -0.0728
     11 C9         -2.5276   -3.3360    2.3191 C.3       1 <0>         0.1984
     12 N3         -1.4919   -2.3506    2.6599 N.pl3     1 <0>        -0.9874
     13 S1         -0.1908   -2.2078    1.6304 S.o2      1 <0>         2.6012
     14 O1          0.5655   -1.1175    2.1389 O.2       1 <0>        -0.9248
     15 O2          0.3674   -3.5125    1.5562 O.2       1 <0>        -0.9211
     16 C10        -1.6005   -1.5223    3.8633 C.3       1 <0>         0.2116
     17 C11        -1.0512   -2.2789    5.0452 C.2       1 <0>        -0.1804
     18 C12         0.2147   -2.3037    5.5293 C.2       1 <0>        -0.1379
     19 C13         0.4926   -3.0787    6.6396 C.2       1 <0>        -0.1607
     20 C14        -0.5089   -3.7910    7.2114 C.2       1 <0>        -0.1626
     21 S2         -1.9003   -3.3689    6.1756 S.3       1 <0>         0.0479
     22 H1         -2.7069    1.8722   -2.2654 H         1 <0>         0.0617
     23 H2         -3.1446    1.6732   -0.5516 H         1 <0>         0.0568
     24 H3         -1.5146    2.2348   -0.9944 H         1 <0>         0.0593
     25 H4         -2.6770   -0.5194   -1.6112 H         1 <0>         0.0799
     26 H5         -0.4473   -1.0435   -2.4577 H         1 <0>         0.0525
     27 H6         -1.0569    0.3956   -3.3095 H         1 <0>         0.0660
     28 H7          0.1431    0.5741   -2.0070 H         1 <0>         0.0625
     29 H8         -0.4557    0.3185    0.3052 H         1 <0>         0.1049
     30 H9         -2.1136   -0.0980    0.8011 H         1 <0>         0.0876
     31 H10        -0.2746   -1.9587   -0.7710 H         1 <0>         0.1576
     32 H11        -2.5347   -2.3908   -2.2499 H         1 <0>         0.2091
     33 H12        -4.6684   -4.4302    0.7415 H         1 <0>         0.1799
     34 H13        -3.4229   -3.1395    2.9090 H         1 <0>         0.1146
     35 H14        -2.1613   -4.3384    2.5408 H         1 <0>         0.0992
     36 H15        -1.0317   -0.6029    3.7242 H         1 <0>         0.1185
     37 H16        -2.6475   -1.2781    4.0430 H         1 <0>         0.1032
     38 H17         0.9945   -1.7268    5.0545 H         1 <0>         0.1367
     39 H18         1.4928   -3.1165    7.0452 H         1 <0>         0.1366
     40 H19        -0.4748   -4.4419    8.0727 H         1 <0>         0.1878
@<TRIPOS>BOND
     1    1    2 1
     2    1   22 1
     3    1   23 1
     4    1   24 1
     5    2    3 1
     6    2    4 1
     7    2   25 1
     8    3   26 1
     9    3   27 1
    10    3   28 1
    11    4    5 1
    12    4   29 1
    13    4   30 1
    14    5   13 1
    15    5    6 1
    16    5   31 1
    17    6   10 1
    18    6    7 1
    19    7    8 2
    20    7   32 1
    21    8    9 1
    22    9   10 2
    23    9   33 1
    24   10   11 1
    25   11   12 1
    26   11   34 1
    27   11   35 1
    28   12   13 1
    29   12   16 1
    30   13   14 2
    31   13   15 2
    32   16   17 1
    33   16   36 1
    34   16   37 1
    35   17   21 1
    36   17   18 2
    37   18   19 1
    38   18   38 1
    39   19   20 2
    40   19   39 1
    41   20   21 1
    42   20   40 1
@<TRIPOS>MOLECULE
CHEMBL1209623
   41    43     0     0     0
SMALL
USER_CHARGES

@<TRIPOS>ATOM
      1 C1         -0.1325    1.4954   -0.0130 C.3       1 <0>        -0.1608
      2 C2          0.0109   -0.0276    0.0159 C.3       1 <0>        -0.1332
      3 C3         -1.3760   -0.6690    0.0950 C.3       1 <0>        -0.1449
      4 C4          0.7182   -0.4975   -1.2568 C.3       1 <0>        -0.1125
      5 C5          2.1536    0.0321   -1.2676 C.3       1 <0>        -0.3888
      6 N1          2.7778   -0.2571   -2.5649 N.pl3     1 <0>        -0.3851
      7 C6          2.5717    0.4353   -3.7067 C.cat     1 <0>         0.3044
      8 N2          3.2731   -0.1154   -4.6595 N.pl3     1 <0>        -0.4674
      9 C7          3.9489   -1.1614   -4.1622 C.2       1 <0>         0.0328
     10 C8          3.6549   -1.2620   -2.8492 C.2       1 <0>         0.0111
     11 C9          4.2200   -2.2934   -1.9082 C.3       1 <0>         0.1784
     12 N3          3.4691   -2.2777   -0.6449 N.pl3     1 <0>        -0.9858
     13 S1          3.1224   -0.7959    0.0311 S.o2      1 <0>         2.5975
     14 O1          2.3011   -1.0846    1.1542 O.2       1 <0>        -0.8880
     15 O2          4.3823   -0.1586    0.1920 O.2       1 <0>        -0.8999
     16 C10         3.0400   -3.5226   -0.0029 C.3       1 <0>         0.2124
     17 C11         4.1607   -4.0607    0.8490 C.2       1 <0>        -0.2040
     18 C12         4.4306   -3.8209    2.1555 C.2       1 <0>        -0.1228
     19 C13         5.5257   -4.4319    2.7369 C.2       1 <0>        -0.1661
     20 C14         6.2974   -5.2528    1.9833 C.2       1 <0>        -0.1463
     21 S2          5.4728   -5.1855    0.4013 S.3       1 <0>         0.0489
     22 H1          0.8555    1.9524   -0.0694 H         1 <0>         0.0465
     23 H2         -0.7187    1.7887   -0.8839 H         1 <0>         0.0641
     24 H3         -0.6365    1.8302    0.8937 H         1 <0>         0.0762
     25 H4          0.5970   -0.3209    0.8868 H         1 <0>         0.1189
     26 H5         -1.9622   -0.3757   -0.7759 H         1 <0>         0.0580
     27 H6         -1.2738   -1.7540    0.1156 H         1 <0>         0.0622
     28 H7         -1.8799   -0.3342    1.0017 H         1 <0>         0.0711
     29 H8          0.7327   -1.5871   -1.2832 H         1 <0>         0.0941
     30 H9          0.1850   -0.1200   -2.1293 H         1 <0>         0.0991
     31 H10         2.1494    1.1080   -1.0931 H         1 <0>         0.1828
     32 H11         1.9331    1.2997   -3.8131 H         1 <0>         0.2660
     33 H12         4.6117   -1.8100   -4.7157 H         1 <0>         0.2352
     34 H13         4.1427   -3.2807   -2.3636 H         1 <0>         0.1418
     35 H14         5.2678   -2.0677   -1.7099 H         1 <0>         0.1277
     36 H15         2.1694   -3.3273    0.6232 H         1 <0>         0.1253
     37 H16         2.7808   -4.2551   -0.7673 H         1 <0>         0.1090
     38 H17         3.7996   -3.1621    2.7335 H         1 <0>         0.1380
     39 H18         5.7632   -4.2576    3.7759 H         1 <0>         0.1412
     40 H19         7.1798   -5.8070    2.2673 H         1 <0>         0.1918
     41 H20         3.3009    0.1843   -5.5816 H         1 <0>         0.4708
@<TRIPOS>BOND
     1    1    2 1
     2    1   22 1
     3    1   23 1
     4    1   24 1
     5    2    3 1
     6    2    4 1
     7    2   25 1
     8    3   26 1
     9    3   27 1
    10    3   28 1
    11    4    5 1
    12    4   29 1
    13    4   30 1
    14    5   13 1
    15    5    6 1
    16    5   31 1
    17    6   10 1
    18    6    7 1
    19    7    8 2
    20    7   32 1
    21    8    9 1
    22    8   41 1
    23    9   10 2
    24    9   33 1
    25   10   11 1
    26   11   12 1
    27   11   34 1
    28   11   35 1
    29   12   13 1
    30   12   16 1
    31   13   14 2
    32   13   15 2
    33   16   17 1
    34   16   36 1
    35   16   37 1
    36   17   21 1
    37   17   18 2
    38   18   19 1
    39   18   38 1
    40   19   20 2
    41   19   39 1
    42   20   21 1
    43   20   40 1
@<TRIPOS>MOLECULE
CHEMBL1209623
   40    42     0     0     0
SMALL
USER_CHARGES

@<TRIPOS>ATOM
      1 C1          0.0022    1.4824    0.3556 C.3       1 <0>        -0.1442
      2 C2          0.0004   -0.0417    0.2214 C.3       1 <0>        -0.1322
      3 C3          0.5738   -0.6665    1.4949 C.3       1 <0>        -0.1559
      4 C4         -1.4333   -0.5336    0.0129 C.3       1 <0>        -0.1123
      5 C5         -1.4225   -2.0416   -0.2458 C.3       1 <0>        -0.3626
      6 N1         -2.7998   -2.5505   -0.2630 N.pl3     1 <0>        -0.4297
      7 C6         -3.5586   -2.7981    0.8272 C.2       1 <0>         0.2017
      8 N2         -4.7288   -3.2198    0.4325 N.2       1 <0>        -0.4813
      9 C7         -4.7538   -3.2624   -0.9075 C.2       1 <0>         0.0084
     10 C8         -3.5512   -2.8514   -1.3606 C.2       1 <0>        -0.0728
     11 C9         -3.1500   -2.7689   -2.8101 C.3       1 <0>         0.1962
     12 N3         -1.8916   -2.0201   -2.9353 N.pl3     1 <0>        -0.9861
     13 S1         -0.6668   -2.3803   -1.8661 S.o2      1 <0>         2.6013
     14 O1          0.3565   -1.4341   -2.1432 O.2       1 <0>        -0.9201
     15 O2         -0.4358   -3.7735   -2.0237 O.2       1 <0>        -0.9243
     16 C10        -1.7205   -0.9926   -3.9654 C.3       1 <0>         0.2117
     17 C11        -2.2707    0.3178   -3.4642 C.2       1 <0>        -0.1812
     18 C12        -1.6375    1.3058   -2.7857 C.2       1 <0>        -0.1389
     19 C13        -2.3501    2.4336   -2.4237 C.2       1 <0>        -0.1616
     20 C14        -3.6610    2.5182   -2.7580 C.2       1 <0>        -0.1632
     21 S2         -3.9235    0.9752   -3.6168 S.3       1 <0>         0.0502
     22 H1          1.0235    1.8328    0.5042 H         1 <0>         0.0624
     23 H2         -0.4064    1.9275   -0.5516 H         1 <0>         0.0612
     24 H3         -0.6094    1.7726    1.2099 H         1 <0>         0.0544
     25 H4          0.6120   -0.3319   -0.6329 H         1 <0>         0.1147
     26 H5          0.5725   -1.7523    1.3993 H         1 <0>         0.0475
     27 H6          1.5951   -0.3161    1.6435 H         1 <0>         0.0668
     28 H7         -0.0378   -0.3763    2.3492 H         1 <0>         0.0605
     29 H8         -2.0233   -0.3222    0.9047 H         1 <0>         0.0898
     30 H9         -1.8723   -0.0213   -0.8432 H         1 <0>         0.0905
     31 H10        -0.8543   -2.5444    0.5368 H         1 <0>         0.1566
     32 H11        -3.2483   -2.6692    1.8536 H         1 <0>         0.2091
     33 H12        -5.5897   -3.5722   -1.5172 H         1 <0>         0.1795
     34 H13        -3.0140   -3.7751   -3.2064 H         1 <0>         0.1029
     35 H14        -3.9319   -2.2606   -3.3742 H         1 <0>         0.1133
     36 H15        -0.6605   -0.8786   -4.1923 H         1 <0>         0.1175
     37 H16        -2.2552   -1.2899   -4.8675 H         1 <0>         0.1070
     38 H17        -0.5920    1.2130   -2.5313 H         1 <0>         0.1425
     39 H18        -1.8697    3.2351   -1.8824 H         1 <0>         0.1351
     40 H19        -4.3634    3.3143   -2.5599 H         1 <0>         0.1858
@<TRIPOS>BOND
     1    1    2 1
     2    1   22 1
     3    1   23 1
     4    1   24 1
     5    2    3 1
     6    2    4 1
     7    2   25 1
     8    3   26 1
     9    3   27 1
    10    3   28 1
    11    4    5 1
    12    4   29 1
    13    4   30 1
    14    5   13 1
    15    5    6 1
    16    5   31 1
    17    6   10 1
    18    6    7 1
    19    7    8 2
    20    7   32 1
    21    8    9 1
    22    9   10 2
    23    9   33 1
    24   10   11 1
    25   11   12 1
    26   11   34 1
    27   11   35 1
    28   12   13 1
    29   12   16 1
    30   13   14 2
    31   13   15 2
    32   16   17 1
    33   16   36 1
    34   16   37 1
    35   17   21 1
    36   17   18 2
    37   18   19 1
    38   18   38 1
    39   19   20 2
    40   19   39 1
    41   20   21 1
    42   20   40 1
@<TRIPOS>MOLECULE
CHEMBL1209623
   41    43     0     0     0
SMALL
USER_CHARGES

@<TRIPOS>ATOM
      1 C1          1.2358   -2.5686   -0.0156 C.3       1 <0>        -0.1671
      2 C2          0.6251   -2.0691   -1.3265 C.3       1 <0>        -0.0920
      3 C3         -0.8012   -2.6062   -1.4619 C.3       1 <0>        -0.1518
      4 C4          0.5960   -0.5394   -1.3253 C.3       1 <0>        -0.1290
      5 C5          2.0285   -0.0020   -1.3136 C.3       1 <0>        -0.3872
      6 N1          2.6873   -0.3219   -2.5863 N.pl3     1 <0>        -0.3792
      7 C6          3.1996   -1.5256   -2.9241 C.cat     1 <0>         0.2992
      8 N2          3.6862   -1.4464   -4.1324 N.pl3     1 <0>        -0.4670
      9 C7          3.5098   -0.2016   -4.5987 C.2       1 <0>         0.0331
     10 C8          2.8900    0.5188   -3.6409 C.2       1 <0>         0.0130
     11 C9          2.5224    1.9755   -3.7496 C.3       1 <0>         0.1791
     12 N3          1.6193    2.3432   -2.6500 N.pl3     1 <0>        -0.9839
     13 S1          2.0032    1.8071   -1.1208 S.o2      1 <0>         2.5999
     14 O1          0.9096    2.2033   -0.3044 O.2       1 <0>        -0.8924
     15 O2          3.3139    2.2978   -0.8749 O.2       1 <0>        -0.9002
     16 C10         0.4229    3.1538   -2.8907 C.3       1 <0>         0.2095
     17 C11        -0.6914    2.2693   -3.3878 C.2       1 <0>        -0.1970
     18 C12        -1.6934    1.6837   -2.6875 C.2       1 <0>        -0.1272
     19 C13        -2.6156    0.9048   -3.3609 C.2       1 <0>        -0.1642
     20 C14        -2.4908    0.7497   -4.7017 C.2       1 <0>        -0.1513
     21 S2         -1.0389    1.7274   -5.0530 S.3       1 <0>         0.0424
     22 H1          2.2813   -2.2645    0.0372 H         1 <0>         0.0507
     23 H2          0.6902   -2.1411    0.8256 H         1 <0>         0.0727
     24 H3          1.1712   -3.6559    0.0242 H         1 <0>         0.0738
     25 H4          1.2267   -2.4204   -2.1648 H         1 <0>         0.0622
     26 H5         -1.4028   -2.2549   -0.6236 H         1 <0>         0.0674
     27 H6         -1.2363   -2.2503   -2.3957 H         1 <0>         0.0598
     28 H7         -0.7804   -3.6960   -1.4627 H         1 <0>         0.0674
     29 H8          0.0823   -0.1850   -2.2190 H         1 <0>         0.1010
     30 H9          0.0684   -0.1867   -0.4391 H         1 <0>         0.1253
     31 H10         2.5825   -0.4515   -0.4895 H         1 <0>         0.1826
     32 H11         3.2060   -2.4059   -2.2985 H         1 <0>         0.2631
     33 H12         3.8116    0.1610   -5.5702 H         1 <0>         0.2349
     34 H13         3.4261    2.5824   -3.6948 H         1 <0>         0.1320
     35 H14         2.0243    2.1535   -4.7026 H         1 <0>         0.1376
     36 H15         0.1176    3.6356   -1.9619 H         1 <0>         0.1262
     37 H16         0.6442    3.9147   -3.6392 H         1 <0>         0.1154
     38 H17        -1.7698    1.8233   -1.6193 H         1 <0>         0.1424
     39 H18        -3.4234    0.4268   -2.8267 H         1 <0>         0.1398
     40 H19        -3.1110    0.1845   -5.3816 H         1 <0>         0.1891
     41 H20         4.1089   -2.1730   -4.6164 H         1 <0>         0.4702
@<TRIPOS>BOND
     1    1    2 1
     2    1   22 1
     3    1   23 1
     4    1   24 1
     5    2    3 1
     6    2    4 1
     7    2   25 1
     8    3   26 1
     9    3   27 1
    10    3   28 1
    11    4    5 1
    12    4   29 1
    13    4   30 1
    14    5   13 1
    15    5    6 1
    16    5   31 1
    17    6   10 1
    18    6    7 1
    19    7    8 2
    20    7   32 1
    21    8    9 1
    22    8   41 1
    23    9   10 2
    24    9   33 1
    25   10   11 1
    26   11   12 1
    27   11   34 1
    28   11   35 1
    29   12   13 1
    30   12   16 1
    31   13   14 2
    32   13   15 2
    33   16   17 1
    34   16   36 1
    35   16   37 1
    36   17   21 1
    37   17   18 2
    38   18   19 1
    39   18   38 1
    40   19   20 2
    41   19   39 1
    42   20   21 1
    43   20   40 1
@<TRIPOS>MOLECULE
CHEMBL260636
   47    51     0     0     0
SMALL
USER_CHARGES

@<TRIPOS>ATOM
      1 C1         -0.6428    1.2747   -0.2012 C.ar      1 <0>        -0.1278
      2 C2          0.4735    2.0470   -0.4688 C.ar      1 <0>        -0.0867
      3 C3          1.7001    1.4473   -0.6870 C.ar      1 <0>        -0.1525
      4 C4          1.8171    0.0705   -0.6388 C.ar      1 <0>         0.1110
      5 C5          0.6938   -0.7126   -0.3693 C.ar      1 <0>        -0.0815
      6 C6         -0.5389   -0.1005   -0.1504 C.ar      1 <0>        -0.0781
      7 C7          0.8113   -2.1902   -0.3165 C.ar      1 <0>        -0.0412
      8 C8          1.4446   -2.8765   -1.3502 C.ar      1 <0>        -0.0890
      9 C9          1.5542   -4.2527   -1.3023 C.ar      1 <0>        -0.1337
     10 C10         1.0341   -4.9535   -0.2254 C.ar      1 <0>         0.1483
     11 C11         0.3994   -4.2708    0.8134 C.ar      1 <0>         0.1506
     12 C12         0.2926   -2.8934    0.7714 C.ar      1 <0>        -0.1192
     13 N1         -0.1842   -4.8010    1.9761 N.am      1 <0>        -0.6771
     14 C13        -0.2667   -6.0910    2.3580 C.2       1 <0>         0.5734
     15 O1         -0.8280   -6.2895    3.4204 O.2       1 <0>        -0.5351
     16 C14         0.2071   -7.2417    1.6964 C.2       1 <0>        -0.3050
     17 C15         0.8660   -7.3406    0.5087 C.2       1 <0>         0.2733
     18 N2          1.2419   -6.3349   -0.3571 N.pl3     1 <0>        -0.6553
     19 C16         1.2276   -8.7104    0.0914 C.ar      1 <0>        -0.0570
     20 C17         0.2803   -9.7353    0.1534 C.ar      1 <0>        -0.0894
     21 C18         0.6212  -11.0135   -0.2375 C.ar      1 <0>        -0.0857
     22 C19         1.8989  -11.2852   -0.6913 C.ar      1 <0>        -0.1158
     23 C20         2.8483  -10.2731   -0.7563 C.ar      1 <0>         0.1412
     24 C21         2.5152   -8.9844   -0.3717 C.ar      1 <0>        -0.1169
     25 N3          4.1428  -10.5548   -1.2170 N.pl3     1 <0>        -0.4148
     26 C22         4.6107  -11.7723   -1.6392 C.2       1 <0>        -0.0531
     27 C23         5.8979  -11.5943   -1.9923 C.2       1 <0>        -0.0174
     28 N4          6.2125  -10.3058   -1.7932 N.2       1 <0>        -0.4799
     29 C24         5.1680   -9.6715   -1.3346 C.2       1 <0>         0.1885
     30 F1          3.0156   -0.5153   -0.8526 F         1 <0>        -0.1327
     31 H1         -1.5971    1.7495   -0.0272 H         1 <0>         0.1332
     32 H2          0.3864    3.1228   -0.5076 H         1 <0>         0.1348
     33 H3          2.5680    2.0552   -0.8958 H         1 <0>         0.1384
     34 H4         -1.4116   -0.7014    0.0586 H         1 <0>         0.1349
     35 H5          1.8500   -2.3320   -2.1902 H         1 <0>         0.1325
     36 H6          2.0452   -4.7831   -2.1048 H         1 <0>         0.1394
     37 H7         -0.1945   -2.3633    1.5764 H         1 <0>         0.1402
     38 H8         -0.5787   -4.1551    2.5828 H         1 <0>         0.4105
     39 H9          0.0218   -8.1773    2.2032 H         1 <0>         0.1551
     40 H10         1.7080   -6.6186   -1.1591 H         1 <0>         0.4124
     41 H11        -0.7185   -9.5270    0.5076 H         1 <0>         0.1430
     42 H12        -0.1122  -11.8048   -0.1887 H         1 <0>         0.1442
     43 H13         2.1598  -12.2879   -0.9960 H         1 <0>         0.1378
     44 H14         3.2508   -8.1955   -0.4261 H         1 <0>         0.1365
     45 H15         4.0539  -12.6968   -1.6804 H         1 <0>         0.1803
     46 H16         6.5622  -12.3574   -2.3702 H         1 <0>         0.1775
     47 H17         5.1266   -8.6210   -1.0875 H         1 <0>         0.2079
@<TRIPOS>BOND
     1    1    6 ar
     2    1    2 ar
     3    1   31 1
     4    2    3 ar
     5    2   32 1
     6    3    4 ar
     7    3   33 1
     8    4    5 ar
     9    4   30 1
    10    5    6 ar
    11    5    7 1
    12    6   34 1
    13    7   12 ar
    14    7    8 ar
    15    8    9 ar
    16    8   35 1
    17    9   10 ar
    18    9   36 1
    19   10   11 ar
    20   10   18 1
    21   11   12 ar
    22   11   13 1
    23   12   37 1
    24   13   38 1
    25   13   14 am
    26   14   15 2
    27   14   16 1
    28   16   39 1
    29   16   17 2
    30   17   19 1
    31   17   18 1
    32   18   40 1
    33   19   24 ar
    34   19   20 ar
    35   20   21 ar
    36   20   41 1
    37   21   22 ar
    38   21   42 1
    39   22   23 ar
    40   22   43 1
    41   23   24 ar
    42   23   25 1
    43   24   44 1
    44   25   29 1
    45   25   26 1
    46   26   27 2
    47   26   45 1
    48   27   28 1
    49   27   46 1
    50   28   29 2
    51   29   47 1
@<TRIPOS>MOLECULE
CHEMBL594933
   60    65     0     0     0
SMALL
USER_CHARGES

@<TRIPOS>ATOM
      1 C1         -3.2088   -0.1041   -0.3271 C.3       1 <0>        -0.0808
      2 C2         -1.9804   -0.9678   -0.2008 C.2       1 <0>         0.1007
      3 C3         -1.1314   -1.3535   -1.2622 C.ar      1 <0>        -0.1412
      4 C4         -1.1101   -1.1147   -2.6421 C.ar      1 <0>        -0.0655
      5 C5         -0.0903   -1.6735   -3.3968 C.ar      1 <0>         0.1017
      6 N1          0.8534   -2.4234   -2.8296 N.ar      1 <0>        -0.4101
      7 C6          0.8726   -2.6734   -1.5396 C.ar      1 <0>         0.1173
      8 C7         -0.1112   -2.1535   -0.7038 C.ar      1 <0>         0.0817
      9 N2         -0.3665   -2.2257    0.6404 N.pl3     1 <0>        -0.4856
     10 H1          0.1628   -2.7074    1.2951 H         1 <0>         0.4494
     11 N3         -1.5211   -1.4785    0.9058 N.2       1 <0>        -0.2301
     12 C8         -0.0495   -1.4330   -4.8587 C.ar      1 <0>        -0.0233
     13 C9         -0.1679   -0.1396   -5.3684 C.ar      1 <0>        -0.0809
     14 C10        -0.1231    0.0335   -6.7464 C.ar      1 <0>         0.0578
     15 C11         0.0366   -1.0747   -7.5677 C.ar      1 <0>         0.0383
     16 N4          0.1458   -2.2862   -7.0618 N.ar      1 <0>        -0.4412
     17 C12         0.1149   -2.5025   -5.7539 C.ar      1 <0>         0.2166
     18 C13         0.2482   -3.8832   -5.2335 C.2       1 <0>        -0.1426
     19 C14        -0.5360   -4.5049   -4.1597 C.2       1 <0>        -0.1855
     20 C15        -0.0664   -5.7573   -4.0351 C.2       1 <0>        -0.0289
     21 O1          0.9188   -5.9456   -4.9263 O.3       1 <0>        -0.1754
     22 C16         1.1181   -4.8389   -5.6556 C.2       1 <0>         0.0200
     23 O2         -0.2351    1.2764   -7.2856 O.3       1 <0>        -0.3217
     24 C17        -0.1797    1.3729   -8.7103 C.3       1 <0>         0.0259
     25 C18        -0.3217    2.8379   -9.1281 C.3       1 <0>         0.0434
     26 H2         -1.2349    3.2510   -8.6997 H         1 <0>         0.1530
     27 C19        -0.3877    2.9290  -10.6540 C.3       1 <0>        -0.0556
     28 C20        -0.6504    4.3559  -11.0611 C.2       1 <0>        -0.2373
     29 C21        -1.8471    4.9029  -11.3271 C.2       1 <0>         0.1038
     30 N5         -1.6935    6.2204  -11.6633 N.pl3     1 <0>        -0.5846
     31 H3         -2.4163    6.8238  -11.8968 H         1 <0>         0.4265
     32 C22        -0.3604    6.5620  -11.6209 C.ar      1 <0>         0.0988
     33 C23         0.3510    5.4108  -11.2357 C.ar      1 <0>        -0.1171
     34 C24         1.7396    5.4619  -11.1028 C.ar      1 <0>        -0.1139
     35 C25         2.4015    6.6328  -11.3444 C.ar      1 <0>        -0.1192
     36 C26         1.7041    7.7723  -11.7207 C.ar      1 <0>        -0.0932
     37 C27         0.3343    7.7416  -11.8668 C.ar      1 <0>        -0.1111
     38 N6          0.8359    3.6003   -8.6416 N.4       1 <0>        -0.6364
     39 H4         -2.9305    0.9430   -0.2083 H         1 <0>         0.0861
     40 H5         -3.6573   -0.2517   -1.3095 H         1 <0>         0.0826
     41 H6         -3.9272   -0.3790    0.4452 H         1 <0>         0.0850
     42 H7         -1.8725   -0.5083   -3.1084 H         1 <0>         0.1405
     43 H8          1.6584   -3.2872   -1.1246 H         1 <0>         0.1665
     44 H9         -0.2917    0.7061   -4.7083 H         1 <0>         0.1493
     45 H10         0.0716   -0.9413   -8.6388 H         1 <0>         0.1609
     46 H11        -1.3292   -4.0484   -3.5863 H         1 <0>         0.1418
     47 H12        -0.4238   -6.4938   -3.3307 H         1 <0>         0.2032
     48 H13         1.8477   -4.7249   -6.4437 H         1 <0>         0.2060
     49 H14         0.7758    0.9853   -9.0638 H         1 <0>         0.0919
     50 H15        -0.9916    0.7905   -9.1457 H         1 <0>         0.1140
     51 H16         0.5601    2.5985  -11.0789 H         1 <0>         0.0998
     52 H17        -1.1923    2.2922  -11.0215 H         1 <0>         0.1219
     53 H18        -2.7912    4.3804  -11.2826 H         1 <0>         0.1791
     54 H19         2.2888    4.5794  -10.8096 H         1 <0>         0.1150
     55 H20         3.4759    6.6719  -11.2415 H         1 <0>         0.1311
     56 H21         2.2412    8.6904  -11.9075 H         1 <0>         0.1352
     57 H22        -0.1995    8.6339  -12.1589 H         1 <0>         0.1293
     58 H23         0.7422    4.5664   -8.9171 H         1 <0>         0.4379
     59 H24         0.8793    3.5403   -7.6353 H         1 <0>         0.4394
     60 H25         1.6812    3.2179   -9.0382 H         1 <0>         0.4299
@<TRIPOS>BOND
     1    1    2 1
     2    1   39 1
     3    1   40 1
     4    1   41 1
     5    2   11 2
     6    2    3 1
     7    3    8 ar
     8    3    4 ar
     9    4    5 ar
    10    4   42 1
    11    5    6 ar
    12    5   12 1
    13    6    7 ar
    14    7    8 ar
    15    7   43 1
    16    8    9 1
    17    9   10 1
    18    9   11 1
    19   12   17 ar
    20   12   13 ar
    21   13   14 ar
    22   13   44 1
    23   14   15 ar
    24   14   23 1
    25   15   16 ar
    26   15   45 1
    27   16   17 ar
    28   17   18 1
    29   18   22 2
    30   18   19 1
    31   19   20 2
    32   19   46 1
    33   20   21 1
    34   20   47 1
    35   21   22 1
    36   22   48 1
    37   23   24 1
    38   24   25 1
    39   24   49 1
    40   24   50 1
    41   25   26 1
    42   25   27 1
    43   25   38 1
    44   27   28 1
    45   27   51 1
    46   27   52 1
    47   28   33 1
    48   28   29 2
    49   29   30 1
    50   29   53 1
    51   30   31 1
    52   30   32 1
    53   32   37 ar
    54   32   33 ar
    55   33   34 ar
    56   34   35 ar
    57   34   54 1
    58   35   36 ar
    59   35   55 1
    60   36   37 ar
    61   36   56 1
    62   37   57 1
    63   38   58 1
    64   38   59 1
    65   38   60 1
@<TRIPOS>MOLECULE
CHEMBL1209696
   51    54     0     0     0
SMALL
USER_CHARGES

@<TRIPOS>ATOM
      1 C1          0.0403    0.4462   -0.0820 C.3       1 <0>        -0.1578
      2 C2          0.4962   -0.9868   -0.3638 C.3       1 <0>         0.1898
      3 H1          1.1674   -1.3171    0.4290 H         1 <0>         0.1199
      4 C3         -0.7051   -1.8952   -0.4159 C.ar      1 <0>        -0.0976
      5 C4         -0.9263   -2.8071    0.5992 C.ar      1 <0>        -0.0953
      6 C5         -2.0279   -3.6405    0.5520 C.ar      1 <0>        -0.1073
      7 C6         -2.9094   -3.5618   -0.5114 C.ar      1 <0>        -0.0310
      8 C7         -2.6875   -2.6489   -1.5270 C.ar      1 <0>        -0.1079
      9 C8         -1.5886   -1.8122   -1.4759 C.ar      1 <0>        -0.0995
     10 Cl1        -4.2930   -4.6086   -0.5717 Cl        1 <0>        -0.0661
     11 N1          1.1987   -1.0320   -1.6487 N.pl3     1 <0>        -0.9849
     12 C9          0.5829   -0.4966   -2.8710 C.3       1 <0>         0.1911
     13 C10         1.5907    0.3253   -3.6308 C.2       1 <0>        -0.0742
     14 C11         1.3064    1.1490   -4.6610 C.2       1 <0>         0.0094
     15 N2          2.4553    1.6958   -5.0841 N.2       1 <0>        -0.4800
     16 C12         3.4399    1.2435   -4.3568 C.2       1 <0>         0.2025
     17 N3          2.9385    0.3935   -3.4339 N.pl3     1 <0>        -0.4292
     18 C13         3.7192   -0.3067   -2.4061 C.3       1 <0>        -0.3642
     19 S1          2.7252   -1.6856   -1.7734 S.o2      1 <0>         2.6067
     20 O1          2.6122   -2.7047   -2.7571 O.2       1 <0>        -0.9194
     21 O2          3.1048   -1.9963   -0.4397 O.2       1 <0>        -0.9269
     22 C14         4.0470    0.6558   -1.2628 C.3       1 <0>        -0.1513
     23 C15         4.9760    1.7584   -1.7749 C.3       1 <0>         0.1513
     24 H2          4.4995    2.2780   -2.6062 H         1 <0>         0.1167
     25 C16         5.2538    2.7375   -0.6635 C.ar      1 <0>        -0.1219
     26 C17         6.2718    2.4891    0.2381 C.ar      1 <0>        -0.1091
     27 C18         6.5267    3.3873    1.2575 C.ar      1 <0>        -0.1151
     28 C19         5.7638    4.5340    1.3751 C.ar      1 <0>        -0.1145
     29 C20         4.7464    4.7829    0.4729 C.ar      1 <0>        -0.1155
     30 C21         4.4943    3.8869   -0.5491 C.ar      1 <0>        -0.1074
     31 O3          6.2049    1.1785   -2.2171 O.3       1 <0>        -0.5503
     32 H3          0.9092    1.1032   -0.0443 H         1 <0>         0.0653
     33 H4         -0.6309    0.7765   -0.8748 H         1 <0>         0.0675
     34 H5         -0.4823    0.4798    0.8740 H         1 <0>         0.0776
     35 H6         -0.2379   -2.8687    1.4291 H         1 <0>         0.1363
     36 H7         -2.2004   -4.3531    1.3450 H         1 <0>         0.1368
     37 H8         -3.3751   -2.5873   -2.3576 H         1 <0>         0.1365
     38 H9         -1.4179   -1.0963   -2.2663 H         1 <0>         0.1369
     39 H10         0.2424   -1.3217   -3.4966 H         1 <0>         0.1007
     40 H11        -0.2682    0.1297   -2.6037 H         1 <0>         0.1178
     41 H12         0.3254    1.3350   -5.0728 H         1 <0>         0.1795
     42 H13         4.4813    1.5047   -4.4732 H         1 <0>         0.2129
     43 H14         4.6427   -0.6876   -2.8423 H         1 <0>         0.1639
     44 H15         3.1258    1.1019   -0.8881 H         1 <0>         0.0999
     45 H16         4.5398    0.1100   -0.4583 H         1 <0>         0.1102
     46 H17         6.8678    1.5931    0.1462 H         1 <0>         0.1212
     47 H18         7.3216    3.1928    1.9623 H         1 <0>         0.1257
     48 H19         5.9625    5.2354    2.1720 H         1 <0>         0.1249
     49 H20         4.1502    5.6787    0.5650 H         1 <0>         0.1254
     50 H21         3.7019    4.0831   -1.2561 H         1 <0>         0.1222
     51 H22         6.6403    0.6260   -1.5536 H         1 <0>         0.3780
@<TRIPOS>BOND
     1    1    2 1
     2    1   32 1
     3    1   33 1
     4    1   34 1
     5    2    3 1
     6    2    4 1
     7    2   11 1
     8    4    9 ar
     9    4    5 ar
    10    5    6 ar
    11    5   35 1
    12    6    7 ar
    13    6   36 1
    14    7    8 ar
    15    7   10 1
    16    8    9 ar
    17    8   37 1
    18    9   38 1
    19   11   19 1
    20   11   12 1
    21   12   13 1
    22   12   39 1
    23   12   40 1
    24   13   17 1
    25   13   14 2
    26   14   15 1
    27   14   41 1
    28   15   16 2
    29   16   17 1
    30   16   42 1
    31   17   18 1
    32   18   19 1
    33   18   22 1
    34   18   43 1
    35   19   20 2
    36   19   21 2
    37   22   23 1
    38   22   44 1
    39   22   45 1
    40   23   24 1
    41   23   25 1
    42   23   31 1
    43   25   30 ar
    44   25   26 ar
    45   26   27 ar
    46   26   46 1
    47   27   28 ar
    48   27   47 1
    49   28   29 ar
    50   28   48 1
    51   29   30 ar
    52   29   49 1
    53   30   50 1
    54   31   51 1
@<TRIPOS>MOLECULE
CHEMBL1209696
   52    55     0     0     0
SMALL
USER_CHARGES

@<TRIPOS>ATOM
      1 C1         -0.1010    0.4438    0.0093 C.3       1 <0>        -0.1601
      2 C2         -0.5370   -1.0015   -0.2396 C.3       1 <0>         0.1894
      3 H1         -0.1776   -1.3263   -1.2161 H         1 <0>         0.1276
      4 C3          0.0411   -1.8919    0.8300 C.ar      1 <0>        -0.1081
      5 C4          1.0534   -2.7798    0.5172 C.ar      1 <0>        -0.0910
      6 C5          1.5840   -3.5967    1.4978 C.ar      1 <0>        -0.1028
      7 C6          1.1018   -3.5256    2.7926 C.ar      1 <0>        -0.0266
      8 C7          0.0886   -2.6367    3.1051 C.ar      1 <0>        -0.1071
      9 C8         -0.4373   -1.8164    2.1248 C.ar      1 <0>        -0.1036
     10 Cl1         1.7673   -4.5517    4.0247 Cl        1 <0>        -0.0553
     11 N1         -1.9993   -1.0833   -0.2054 N.pl3     1 <0>        -0.9826
     12 C9         -2.7633   -0.5629    0.9371 C.3       1 <0>         0.1707
     13 C10        -3.9454    0.2279    0.4413 C.2       1 <0>         0.0114
     14 C11        -4.7160    1.0351    1.1997 C.2       1 <0>         0.0327
     15 N2         -5.6702    1.5553    0.4143 N.pl3     1 <0>        -0.4668
     16 C12        -5.5211    1.1024   -0.8004 C.cat     1 <0>         0.3016
     17 N3         -4.4503    0.2789   -0.8247 N.pl3     1 <0>        -0.3827
     18 C13        -3.9329   -0.4127   -2.0122 C.3       1 <0>        -0.3858
     19 S1         -2.8537   -1.7629   -1.4629 S.o2      1 <0>         2.6028
     20 O1         -3.6234   -2.7997   -0.8696 O.2       1 <0>        -0.8968
     21 O2         -1.8809   -2.0529   -2.4573 O.2       1 <0>        -0.8943
     22 C14        -3.1310    0.5673   -2.8710 C.3       1 <0>        -0.1628
     23 C15        -4.0663    1.6448   -3.4234 C.3       1 <0>         0.1558
     24 H2         -4.5610    2.1550   -2.5969 H         1 <0>         0.1001
     25 C16        -3.2674    2.6415   -4.2231 C.ar      1 <0>        -0.1363
     26 C17        -2.9893    2.3954   -5.5546 C.ar      1 <0>        -0.1051
     27 C18        -2.2565    3.3096   -6.2881 C.ar      1 <0>        -0.1096
     28 C19        -1.8023    4.4703   -5.6902 C.ar      1 <0>        -0.1047
     29 C20        -2.0812    4.7169   -4.3590 C.ar      1 <0>        -0.1133
     30 C21        -2.8176    3.8046   -3.6266 C.ar      1 <0>        -0.1101
     31 O3         -5.0487    1.0371   -4.2646 O.3       1 <0>        -0.5537
     32 H3          0.9870    0.5046   -0.0161 H         1 <0>         0.0867
     33 H4         -0.5192    1.0878   -0.7643 H         1 <0>         0.0648
     34 H5         -0.4604    0.7686    0.9858 H         1 <0>         0.0667
     35 H6          1.4296   -2.8355   -0.4936 H         1 <0>         0.1386
     36 H7          2.3746   -4.2906    1.2533 H         1 <0>         0.1409
     37 H8         -0.2884   -2.5810    4.1156 H         1 <0>         0.1384
     38 H9         -1.2249   -1.1191    2.3696 H         1 <0>         0.1304
     39 H10        -3.1141   -1.3949    1.5477 H         1 <0>         0.1300
     40 H11        -2.1223    0.0818    1.5384 H         1 <0>         0.1439
     41 H12        -4.5870    1.2280    2.2545 H         1 <0>         0.2352
     42 H13        -6.1489    1.3450   -1.6450 H         1 <0>         0.2677
     43 H14        -4.7625   -0.8166   -2.5925 H         1 <0>         0.1892
     44 H15        -2.3573    1.0351   -2.2621 H         1 <0>         0.1108
     45 H16        -2.6670    0.0301   -3.6981 H         1 <0>         0.1324
     46 H17        -3.3442    1.4886   -6.0217 H         1 <0>         0.1234
     47 H18        -2.0386    3.1170   -7.3282 H         1 <0>         0.1309
     48 H19        -1.2292    5.1842   -6.2631 H         1 <0>         0.1301
     49 H20        -1.7260    5.6235   -3.8918 H         1 <0>         0.1285
     50 H21        -3.0387    3.9990   -2.5875 H         1 <0>         0.1173
     51 H22        -4.6779    0.4913   -4.9715 H         1 <0>         0.3901
     52 H23        -6.3621    2.1706    0.7034 H         1 <0>         0.4710
@<TRIPOS>BOND
     1    1    2 1
     2    1   32 1
     3    1   33 1
     4    1   34 1
     5    2    3 1
     6    2    4 1
     7    2   11 1
     8    4    9 ar
     9    4    5 ar
    10    5    6 ar
    11    5   35 1
    12    6    7 ar
    13    6   36 1
    14    7    8 ar
    15    7   10 1
    16    8    9 ar
    17    8   37 1
    18    9   38 1
    19   11   19 1
    20   11   12 1
    21   12   13 1
    22   12   39 1
    23   12   40 1
    24   13   17 1
    25   13   14 2
    26   14   15 1
    27   14   41 1
    28   15   16 2
    29   15   52 1
    30   16   17 1
    31   16   42 1
    32   17   18 1
    33   18   19 1
    34   18   22 1
    35   18   43 1
    36   19   20 2
    37   19   21 2
    38   22   23 1
    39   22   44 1
    40   22   45 1
    41   23   24 1
    42   23   25 1
    43   23   31 1
    44   25   30 ar
    45   25   26 ar
    46   26   27 ar
    47   26   46 1
    48   27   28 ar
    49   27   47 1
    50   28   29 ar
    51   28   48 1
    52   29   30 ar
    53   29   49 1
    54   30   50 1
    55   31   51 1
@<TRIPOS>MOLECULE
CHEMBL1209696
   51    54     0     0     0
SMALL
USER_CHARGES

@<TRIPOS>ATOM
      1 C1          0.6529    1.6634   -0.2396 C.3       1 <0>        -0.1635
      2 C2          0.2997    0.2074   -0.5499 C.3       1 <0>         0.1869
      3 H1          0.9007   -0.4534    0.0747 H         1 <0>         0.1194
      4 C3         -1.1620   -0.0262   -0.2670 C.ar      1 <0>        -0.0944
      5 C4         -2.1025    0.8977   -0.6829 C.ar      1 <0>        -0.0949
      6 C5         -3.4432    0.6841   -0.4238 C.ar      1 <0>        -0.1061
      7 C6         -3.8439   -0.4547    0.2520 C.ar      1 <0>        -0.0283
      8 C7         -2.9022   -1.3790    0.6680 C.ar      1 <0>        -0.1058
      9 C8         -1.5623   -1.1670    0.4033 C.ar      1 <0>        -0.0956
     10 Cl1        -5.5277   -0.7235    0.5783 Cl        1 <0>        -0.0650
     11 N1          0.5745   -0.0716   -1.9616 N.pl3     1 <0>        -0.9833
     12 C9         -0.2032    0.5726   -3.0293 C.3       1 <0>         0.1867
     13 C10        -0.5849   -0.4488   -4.0684 C.2       1 <0>        -0.0698
     14 C11        -1.4892   -0.2592   -5.0517 C.2       1 <0>         0.0079
     15 N2         -1.5507   -1.3829   -5.7808 N.2       1 <0>        -0.4799
     16 C12        -0.7205   -2.2608   -5.2880 C.2       1 <0>         0.2013
     17 N3         -0.1068   -1.7178   -4.2138 N.pl3     1 <0>        -0.4307
     18 C13         0.8806   -2.3943   -3.3632 C.3       1 <0>        -0.3535
     19 S1          1.7835   -1.1244   -2.4121 S.o2      1 <0>         2.6005
     20 O1          2.6309   -0.3704   -3.2680 O.2       1 <0>        -0.9189
     21 O2          2.2730   -1.6689   -1.1942 O.2       1 <0>        -0.9245
     22 C14         0.1671   -3.3500   -2.4049 C.3       1 <0>        -0.1421
     23 C15         1.2052   -4.1513   -1.6168 C.3       1 <0>         0.1114
     24 H2          1.8420   -3.4677   -1.0553 H         1 <0>         0.1549
     25 C16         0.5025   -5.0818   -0.6620 C.ar      1 <0>        -0.1147
     26 C17         0.0756   -6.3232   -1.0951 C.ar      1 <0>        -0.1122
     27 C18        -0.5689   -7.1767   -0.2194 C.ar      1 <0>        -0.1146
     28 C19        -0.7863   -6.7890    1.0895 C.ar      1 <0>        -0.1153
     29 C20        -0.3586   -5.5479    1.5229 C.ar      1 <0>        -0.1150
     30 C21         0.2898   -4.6961    0.6483 C.ar      1 <0>        -0.1079
     31 O3          2.0062   -4.9135   -2.5220 O.3       1 <0>        -0.5499
     32 H3          1.7101    1.8323   -0.4442 H         1 <0>         0.0686
     33 H4          0.0518    2.3241   -0.8643 H         1 <0>         0.0677
     34 H5          0.4484    1.8709    0.8107 H         1 <0>         0.0781
     35 H6         -1.7895    1.7868   -1.2101 H         1 <0>         0.1379
     36 H7         -4.1778    1.4061   -0.7484 H         1 <0>         0.1368
     37 H8         -3.2144   -2.2680    1.1958 H         1 <0>         0.1350
     38 H9         -0.8276   -1.8908    0.7237 H         1 <0>         0.1327
     39 H10        -1.1056    1.0129   -2.6053 H         1 <0>         0.1187
     40 H11         0.3972    1.3550   -3.4935 H         1 <0>         0.1008
     41 H12        -2.0630    0.6398   -5.2214 H         1 <0>         0.1787
     42 H13        -0.5523   -3.2554   -5.6741 H         1 <0>         0.2093
     43 H14         1.5806   -2.9520   -3.9854 H         1 <0>         0.1630
     44 H15        -0.4511   -2.7771   -1.7137 H         1 <0>         0.0959
     45 H16        -0.4628   -4.0330   -2.9750 H         1 <0>         0.0973
     46 H17         0.2454   -6.6261   -2.1178 H         1 <0>         0.1195
     47 H18        -0.9031   -8.1463   -0.5580 H         1 <0>         0.1247
     48 H19        -1.2905   -7.4555    1.7736 H         1 <0>         0.1244
     49 H20        -0.5287   -5.2449    2.5454 H         1 <0>         0.1262
     50 H21         0.6272   -3.7280    0.9878 H         1 <0>         0.1266
     51 H22         1.5041   -5.5443   -3.0559 H         1 <0>         0.3751
@<TRIPOS>BOND
     1    1    2 1
     2    1   32 1
     3    1   33 1
     4    1   34 1
     5    2    3 1
     6    2    4 1
     7    2   11 1
     8    4    9 ar
     9    4    5 ar
    10    5    6 ar
    11    5   35 1
    12    6    7 ar
    13    6   36 1
    14    7    8 ar
    15    7   10 1
    16    8    9 ar
    17    8   37 1
    18    9   38 1
    19   11   19 1
    20   11   12 1
    21   12   13 1
    22   12   39 1
    23   12   40 1
    24   13   17 1
    25   13   14 2
    26   14   15 1
    27   14   41 1
    28   15   16 2
    29   16   17 1
    30   16   42 1
    31   17   18 1
    32   18   19 1
    33   18   22 1
    34   18   43 1
    35   19   20 2
    36   19   21 2
    37   22   23 1
    38   22   44 1
    39   22   45 1
    40   23   24 1
    41   23   25 1
    42   23   31 1
    43   25   30 ar
    44   25   26 ar
    45   26   27 ar
    46   26   46 1
    47   27   28 ar
    48   27   47 1
    49   28   29 ar
    50   28   48 1
    51   29   30 ar
    52   29   49 1
    53   30   50 1
    54   31   51 1
@<TRIPOS>MOLECULE
CHEMBL1209696
   52    55     0     0     0
SMALL
USER_CHARGES

@<TRIPOS>ATOM
      1 C1         -0.5742    1.6479   -0.4466 C.3       1 <0>        -0.1666
      2 C2         -0.6298    0.1916    0.0195 C.3       1 <0>         0.1858
      3 H1         -0.3728   -0.4658   -0.8111 H         1 <0>         0.1274
      4 C3          0.3514   -0.0134    1.1448 C.ar      1 <0>        -0.1039
      5 C4          0.4381    0.9165    2.1640 C.ar      1 <0>        -0.1022
      6 C5          1.3378    0.7290    3.1963 C.ar      1 <0>        -0.1064
      7 C6          2.1518   -0.3897    3.2094 C.ar      1 <0>        -0.0271
      8 C7          2.0645   -1.3200    2.1892 C.ar      1 <0>        -0.1030
      9 C8          1.1604   -1.1343    1.1603 C.ar      1 <0>        -0.0948
     10 Cl1         3.2825   -0.6256    4.5054 Cl        1 <0>        -0.0543
     11 N1         -1.9824   -0.1198    0.4882 N.pl3     1 <0>        -0.9812
     12 C9         -2.5344    0.5150    1.6933 C.3       1 <0>         0.1669
     13 C10        -3.2177   -0.5209    2.5469 C.2       1 <0>         0.0147
     14 C11        -3.6219   -0.3369    3.8210 C.2       1 <0>         0.0310
     15 N2         -4.1942   -1.4739    4.2428 N.pl3     1 <0>        -0.4664
     16 C12        -4.1604   -2.3546    3.2805 C.cat     1 <0>         0.3035
     17 N3         -3.5506   -1.7998    2.2100 N.pl3     1 <0>        -0.3841
     18 C13        -3.2907   -2.4745    0.9320 C.3       1 <0>        -0.3787
     19 S1         -2.9503   -1.2001   -0.3299 S.o2      1 <0>         2.5981
     20 O1         -4.1337   -0.4766   -0.6386 O.2       1 <0>        -0.8964
     21 O2         -2.1267   -1.7276   -1.3608 O.2       1 <0>        -0.8925
     22 C14        -2.0804   -3.3996    1.0742 C.3       1 <0>        -0.1503
     23 C15        -1.8966   -4.2010   -0.2161 C.3       1 <0>         0.1165
     24 H2         -1.7459   -3.5164   -1.0507 H         1 <0>         0.1571
     25 C16        -0.6955   -5.1012   -0.0816 C.ar      1 <0>        -0.1258
     26 C17        -0.8260   -6.3442    0.5089 C.ar      1 <0>        -0.1123
     27 C18         0.2758   -7.1699    0.6323 C.ar      1 <0>        -0.1129
     28 C19         1.5079   -6.7528    0.1647 C.ar      1 <0>        -0.1076
     29 C20         1.6383   -5.5101   -0.4266 C.ar      1 <0>        -0.1125
     30 C21         0.5356   -4.6862   -0.5539 C.ar      1 <0>        -0.1065
     31 O3         -3.0615   -4.9936   -0.4546 O.3       1 <0>        -0.5471
     32 H3          0.4322    1.8796   -0.7953 H         1 <0>         0.0854
     33 H4         -1.2839    1.7962   -1.2605 H         1 <0>         0.0729
     34 H5         -0.8313    2.3053    0.3839 H         1 <0>         0.0689
     35 H6         -0.1971    1.7899    2.1534 H         1 <0>         0.1385
     36 H7          1.4057    1.4558    3.9922 H         1 <0>         0.1394
     37 H8          2.6999   -2.1933    2.1987 H         1 <0>         0.1388
     38 H9          1.0889   -1.8628    0.3663 H         1 <0>         0.1355
     39 H10        -1.7273    0.9777    2.2613 H         1 <0>         0.1434
     40 H11        -3.2560    1.2785    1.4027 H         1 <0>         0.1304
     41 H12        -3.5047    0.5674    4.3997 H         1 <0>         0.2342
     42 H13        -4.5538   -3.3591    3.3313 H         1 <0>         0.2658
     43 H14        -4.1652   -3.0554    0.6388 H         1 <0>         0.1886
     44 H15        -1.1874   -2.8035    1.2619 H         1 <0>         0.1062
     45 H16        -2.2421   -4.0840    1.9070 H         1 <0>         0.1039
     46 H17        -1.7887   -6.6701    0.8743 H         1 <0>         0.1189
     47 H18         0.1739   -8.1408    1.0943 H         1 <0>         0.1275
     48 H19         2.3689   -7.3976    0.2618 H         1 <0>         0.1284
     49 H20         2.6010   -5.1841   -0.7916 H         1 <0>         0.1296
     50 H21         0.6367   -3.7168   -1.0192 H         1 <0>         0.1273
     51 H22        -3.2571   -5.6271    0.2494 H         1 <0>         0.3772
     52 H23        -4.5729   -1.6188    5.1239 H         1 <0>         0.4706
@<TRIPOS>BOND
     1    1    2 1
     2    1   32 1
     3    1   33 1
     4    1   34 1
     5    2    3 1
     6    2    4 1
     7    2   11 1
     8    4    9 ar
     9    4    5 ar
    10    5    6 ar
    11    5   35 1
    12    6    7 ar
    13    6   36 1
    14    7    8 ar
    15    7   10 1
    16    8    9 ar
    17    8   37 1
    18    9   38 1
    19   11   19 1
    20   11   12 1
    21   12   13 1
    22   12   39 1
    23   12   40 1
    24   13   17 1
    25   13   14 2
    26   14   15 1
    27   14   41 1
    28   15   16 2
    29   15   52 1
    30   16   17 1
    31   16   42 1
    32   17   18 1
    33   18   19 1
    34   18   22 1
    35   18   43 1
    36   19   20 2
    37   19   21 2
    38   22   23 1
    39   22   44 1
    40   22   45 1
    41   23   24 1
    42   23   25 1
    43   23   31 1
    44   25   30 ar
    45   25   26 ar
    46   26   27 ar
    47   26   46 1
    48   27   28 ar
    49   27   47 1
    50   28   29 ar
    51   28   48 1
    52   29   30 ar
    53   29   49 1
    54   30   50 1
    55   31   51 1
@<TRIPOS>MOLECULE
CHEMBL310586
   59    64     0     0     0
SMALL
USER_CHARGES

@<TRIPOS>ATOM
      1 C1         -0.0165    1.3674    0.0096 C.ar      1 <0>        -0.1059
      2 C2          1.1691    2.0820    0.0021 C.ar      1 <0>        -0.0975
      3 C3          2.3630    1.3950    0.0026 C.ar      1 <0>        -0.1134
      4 C4          2.4118    0.0079    0.0070 C.ar      1 <0>         0.1635
      5 C5          1.2252   -0.7183   -0.0156 C.ar      1 <0>        -0.0473
      6 C6          0.0021   -0.0041    0.0020 C.ar      1 <0>        -0.1019
      7 C7          1.0603   -2.1795   -0.1061 C.ar      1 <0>        -0.0210
      8 C8          0.4725   -2.8123    1.0114 C.ar      1 <0>        -0.1005
      9 C9          0.2741   -4.1746    1.0087 C.ar      1 <0>        -0.0963
     10 C10         0.6396   -4.9303   -0.0913 C.ar      1 <0>        -0.1240
     11 C11         1.2155   -4.3199   -1.1982 C.ar      1 <0>         0.0856
     12 C12         1.4415   -2.9500   -1.1835 C.ar      1 <0>        -0.1073
     13 O1          1.5227   -5.0458   -2.3013 O.3       1 <0>        -0.2636
     14 C13         2.6046   -5.8526   -2.3467 C.ar      1 <0>         0.1695
     15 C14         3.8455   -5.3839   -1.9415 C.ar      1 <0>        -0.1476
     16 C15         4.9530   -6.2056   -2.0039 C.ar      1 <0>        -0.0904
     17 C16         4.8334   -7.5092   -2.4580 C.ar      1 <0>        -0.1115
     18 C17         3.6083   -7.9987   -2.8583 C.ar      1 <0>        -0.0396
     19 C18         2.4811   -7.1739   -2.8083 C.ar      1 <0>        -0.0094
     20 C19         1.2060   -7.6733   -3.2275 C.1       1 <0>         0.2353
     21 N1          0.1945   -8.0694   -3.5599 N.1       1 <0>        -0.3730
     22 C20         6.3016   -5.6774   -1.5836 C.3       1 <0>         0.1342
     23 N2          6.9505   -5.0224   -2.7222 N.pl3     1 <0>        -0.3940
     24 C21         7.8674   -5.5883   -3.5434 C.cat     1 <0>         0.2861
     25 N3          8.2243   -4.7110   -4.4395 N.pl3     1 <0>        -0.4682
     26 C22         7.5575   -3.5671   -4.2288 C.2       1 <0>         0.0043
     27 C23         6.7520   -3.7439   -3.1583 C.2       1 <0>         0.0804
     28 C24         5.8194   -2.7096   -2.5805 C.3       1 <0>         0.0625
     29 N4          6.0542   -2.6143   -1.1117 N.3       1 <0>        -0.5865
     30 C25         5.7959   -1.2086   -0.7049 C.3       1 <0>         0.0180
     31 C26         5.8481   -1.1193    0.8267 C.3       1 <0>        -0.1248
     32 C27         4.3550   -1.1636    1.1951 C.3       1 <0>         0.0999
     33 N5          3.6517   -0.6074    0.0466 N.am      1 <0>        -0.5725
     34 C28         4.4056   -0.7744   -1.0828 C.2       1 <0>         0.4845
     35 O2          3.9990   -0.5934   -2.2113 O.2       1 <0>        -0.4958
     36 H1         -0.9594    1.8943    0.0169 H         1 <0>         0.1332
     37 H2          1.1573    3.1608   -0.0030 H         1 <0>         0.1364
     38 H3          3.2896    1.9558    0.0009 H         1 <0>         0.1247
     39 H4         -0.9271   -0.5552    0.0075 H         1 <0>         0.1302
     40 H5          0.1805   -2.2215    1.8665 H         1 <0>         0.1347
     41 H6         -0.1682   -4.6568    1.8685 H         1 <0>         0.1390
     42 H7          0.4769   -5.9973   -0.0891 H         1 <0>         0.1318
     43 H8          1.9249   -2.4858   -2.0338 H         1 <0>         0.1290
     44 H9          3.9431   -4.3740   -1.5724 H         1 <0>         0.1311
     45 H10         5.7049   -8.1457   -2.5000 H         1 <0>         0.1465
     46 H11         3.5197   -9.0159   -3.2095 H         1 <0>         0.1547
     47 H12         6.1769   -4.9634   -0.7714 H         1 <0>         0.1365
     48 H13         6.9231   -6.5072   -1.2423 H         1 <0>         0.1379
     49 H14         8.2385   -6.5996   -3.4668 H         1 <0>         0.2615
     50 H15         7.6462   -2.6614   -4.8101 H         1 <0>         0.2228
     51 H16         6.0233   -1.7381   -3.0218 H         1 <0>         0.1273
     52 H17         4.7874   -2.9984   -2.7467 H         1 <0>         0.0940
     53 H18         5.1957   -3.1120   -0.7215 H         1 <0>         0.3218
     54 H19         6.5360   -0.5483   -1.1473 H         1 <0>         0.1304
     55 H20         6.3766   -1.9703    1.2486 H         1 <0>         0.1096
     56 H21         6.2952   -0.1791    1.1443 H         1 <0>         0.1001
     57 H22         4.0458   -2.1936    1.3744 H         1 <0>         0.0755
     58 H23         4.1745   -0.5593    2.0854 H         1 <0>         0.0939
     59 H24         8.8697   -4.8620   -5.1477 H         1 <0>         0.4658
@<TRIPOS>BOND
     1    1    6 ar
     2    1    2 ar
     3    1   36 1
     4    2    3 ar
     5    2   37 1
     6    3    4 ar
     7    3   38 1
     8    4   33 1
     9    4    5 ar
    10    5    6 ar
    11    5    7 1
    12    6   39 1
    13    7   12 ar
    14    7    8 ar
    15    8    9 ar
    16    8   40 1
    17    9   10 ar
    18    9   41 1
    19   10   11 ar
    20   10   42 1
    21   11   12 ar
    22   11   13 1
    23   12   43 1
    24   13   14 1
    25   14   19 ar
    26   14   15 ar
    27   15   16 ar
    28   15   44 1
    29   16   17 ar
    30   16   22 1
    31   17   18 ar
    32   17   45 1
    33   18   19 ar
    34   18   46 1
    35   19   20 1
    36   20   21 3
    37   22   23 1
    38   22   47 1
    39   22   48 1
    40   23   27 1
    41   23   24 1
    42   24   25 2
    43   24   49 1
    44   25   26 1
    45   25   59 1
    46   26   27 2
    47   26   50 1
    48   27   28 1
    49   28   29 1
    50   28   51 1
    51   28   52 1
    52   29   30 1
    53   29   53 1
    54   30   34 1
    55   30   31 1
    56   30   54 1
    57   31   32 1
    58   31   55 1
    59   31   56 1
    60   32   33 1
    61   32   57 1
    62   32   58 1
    63   33   34 am
    64   34   35 2
@<TRIPOS>MOLECULE
CHEMBL310586
   60    65     0     0     0
SMALL
USER_CHARGES

@<TRIPOS>ATOM
      1 C1         -0.0165    1.3666    0.0096 C.ar      1 <0>        -0.0908
      2 C2          1.1729    2.0737    0.0020 C.ar      1 <0>        -0.0936
      3 C3          2.3654    1.3877   -0.0055 C.ar      1 <0>        -0.1097
      4 C4          2.4113   -0.0031   -0.0113 C.ar      1 <0>         0.1379
      5 C5          1.2255   -0.7246   -0.0175 C.ar      1 <0>        -0.0351
      6 C6          0.0021   -0.0041    0.0020 C.ar      1 <0>        -0.1016
      7 C7          1.0338   -2.1835   -0.0753 C.ar      1 <0>        -0.0269
      8 C8          0.4123   -2.7656    1.0549 C.ar      1 <0>        -0.0967
      9 C9          0.1815   -4.1214    1.0902 C.ar      1 <0>        -0.0919
     10 C10         0.5428   -4.9225    0.0254 C.ar      1 <0>        -0.1195
     11 C11         1.1504   -4.3625   -1.0915 C.ar      1 <0>         0.0858
     12 C12         1.4125   -3.0005   -1.1183 C.ar      1 <0>        -0.1176
     13 O1          1.4494   -5.1317   -2.1602 O.3       1 <0>        -0.2650
     14 C13         2.5117   -5.9566   -2.2204 C.ar      1 <0>         0.1818
     15 C14         3.7712   -5.5195   -1.8438 C.ar      1 <0>        -0.1662
     16 C15         4.8547   -6.3685   -1.9316 C.ar      1 <0>        -0.1079
     17 C16         4.6949   -7.6705   -2.3768 C.ar      1 <0>        -0.1012
     18 C17         3.4491   -8.1282   -2.7437 C.ar      1 <0>        -0.0313
     19 C18         2.3442   -7.2772   -2.6723 C.ar      1 <0>         0.0090
     20 C19         1.0479   -7.7470   -3.0585 C.1       1 <0>         0.2204
     21 N1          0.0194   -8.1198   -3.3648 N.1       1 <0>        -0.3493
     22 C20         6.2262   -5.8709   -1.5493 C.3       1 <0>         0.1325
     23 N2          6.8659   -5.2421   -2.7069 N.pl3     1 <0>        -0.4120
     24 C21         7.7865   -5.8178   -3.5127 C.cat     1 <0>         0.3413
     25 N3          8.1303   -4.9604   -4.4334 N.pl3     1 <0>        -0.4712
     26 C22         7.4504   -3.8201   -4.2542 C.2       1 <0>         0.0865
     27 C23         6.6500   -3.9772   -3.1787 C.2       1 <0>        -0.0357
     28 C24         5.7033   -2.9427   -2.6299 C.3       1 <0>         0.0593
     29 N4          5.9612   -2.7196   -1.2059 N.4       1 <0>        -0.5007
     30 C25         5.7332   -1.3200   -0.8528 C.3       1 <0>        -0.0145
     31 C26         5.9036   -1.1162    0.6591 C.3       1 <0>        -0.1454
     32 C27         4.4548   -1.0081    1.1527 C.3       1 <0>         0.0852
     33 N5          3.6579   -0.6017    0.0054 N.am      1 <0>        -0.5419
     34 C28         4.3203   -0.8917   -1.1582 C.2       1 <0>         0.4907
     35 O2          3.8309   -0.8092   -2.2656 O.2       1 <0>        -0.4604
     36 H1         -0.9579    1.8958    0.0169 H         1 <0>         0.1408
     37 H2          1.1641    3.1526    0.0020 H         1 <0>         0.1417
     38 H3          3.2921    1.9484   -0.0050 H         1 <0>         0.1287
     39 H4         -0.9279   -0.5543    0.0079 H         1 <0>         0.1353
     40 H5          0.1215   -2.1401    1.8857 H         1 <0>         0.1392
     41 H6         -0.2867   -4.5640    1.9578 H         1 <0>         0.1431
     42 H7          0.3525   -5.9846    0.0610 H         1 <0>         0.1359
     43 H8          1.9220   -2.5794   -1.9760 H         1 <0>         0.1286
     44 H9          3.9022   -4.5133   -1.4747 H         1 <0>         0.1144
     45 H10         5.5494   -8.3281   -2.4367 H         1 <0>         0.1523
     46 H11         3.3265   -9.1448   -3.0872 H         1 <0>         0.1614
     47 H12         6.1388   -5.1463   -0.7415 H         1 <0>         0.1075
     48 H13         6.8345   -6.7124   -1.2151 H         1 <0>         0.1589
     49 H14         8.1710   -6.8218   -3.4107 H         1 <0>         0.2764
     50 H15         7.5268   -2.9306   -4.8616 H         1 <0>         0.2384
     51 H16         5.8436   -2.0060   -3.1728 H         1 <0>         0.1876
     52 H17         4.6768   -3.2822   -2.7662 H         1 <0>         0.1647
     53 H18         5.3485   -3.3036   -0.6569 H         1 <0>         0.4267
     54 H19         6.4312   -0.6708   -1.3884 H         1 <0>         0.1884
     55 H20         6.4017   -1.9725    1.1101 H         1 <0>         0.1196
     56 H21         6.4495   -0.1966    0.8637 H         1 <0>         0.1412
     57 H22         4.1183   -1.9747    1.5319 H         1 <0>         0.0917
     58 H23         4.3897   -0.2607    1.9468 H         1 <0>         0.1163
     59 H24         8.7759   -5.1233   -5.1391 H         1 <0>         0.4787
     60 H25         6.9203   -2.9611   -1.0001 H         1 <0>         0.4381
@<TRIPOS>BOND
     1    1    6 ar
     2    1    2 ar
     3    1   36 1
     4    2    3 ar
     5    2   37 1
     6    3    4 ar
     7    3   38 1
     8    4   33 1
     9    4    5 ar
    10    5    6 ar
    11    5    7 1
    12    6   39 1
    13    7   12 ar
    14    7    8 ar
    15    8    9 ar
    16    8   40 1
    17    9   10 ar
    18    9   41 1
    19   10   11 ar
    20   10   42 1
    21   11   12 ar
    22   11   13 1
    23   12   43 1
    24   13   14 1
    25   14   19 ar
    26   14   15 ar
    27   15   16 ar
    28   15   44 1
    29   16   17 ar
    30   16   22 1
    31   17   18 ar
    32   17   45 1
    33   18   19 ar
    34   18   46 1
    35   19   20 1
    36   20   21 3
    37   22   23 1
    38   22   47 1
    39   22   48 1
    40   23   27 1
    41   23   24 1
    42   24   25 2
    43   24   49 1
    44   25   26 1
    45   25   59 1
    46   26   27 2
    47   26   50 1
    48   27   28 1
    49   28   29 1
    50   28   51 1
    51   28   52 1
    52   29   30 1
    53   29   53 1
    54   29   60 1
    55   30   34 1
    56   30   31 1
    57   30   54 1
    58   31   32 1
    59   31   55 1
    60   31   56 1
    61   32   33 1
    62   32   57 1
    63   32   58 1
    64   33   34 am
    65   34   35 2
@<TRIPOS>MOLECULE
CHEMBL310586
   59    64     0     0     0
SMALL
USER_CHARGES

@<TRIPOS>ATOM
      1 C1         -0.0165    1.3663    0.0096 C.ar      1 <0>        -0.0958
      2 C2          1.1730    2.0736    0.0020 C.ar      1 <0>        -0.0972
      3 C3          2.3643    1.3868   -0.0083 C.ar      1 <0>        -0.1112
      4 C4          2.4098   -0.0044   -0.0179 C.ar      1 <0>         0.1461
      5 C5          1.2248   -0.7262   -0.0188 C.ar      1 <0>        -0.0328
      6 C6          0.0021   -0.0041    0.0020 C.ar      1 <0>        -0.1028
      7 C7          1.0285   -2.1852   -0.0662 C.ar      1 <0>        -0.0287
      8 C8          0.4178   -2.7572    1.0754 C.ar      1 <0>        -0.1019
      9 C9          0.1810   -4.1112    1.1231 C.ar      1 <0>        -0.0948
     10 C10         0.5258   -4.9219    0.0602 C.ar      1 <0>        -0.1223
     11 C11         1.1243   -4.3729   -1.0674 C.ar      1 <0>         0.0948
     12 C12         1.3919   -3.0121   -1.1070 C.ar      1 <0>        -0.1161
     13 O1          1.4077   -5.1527   -2.1317 O.3       1 <0>        -0.2688
     14 C13         2.4710   -5.9756   -2.2016 C.ar      1 <0>         0.1781
     15 C14         3.7323   -5.5356   -1.8333 C.ar      1 <0>        -0.1680
     16 C15         4.8186   -6.3811   -1.9337 C.ar      1 <0>        -0.0769
     17 C16         4.6593   -7.6816   -2.3820 C.ar      1 <0>        -0.1067
     18 C17         3.4118   -8.1428   -2.7388 C.ar      1 <0>        -0.0318
     19 C18         2.3043   -7.2960   -2.6540 C.ar      1 <0>        -0.0155
     20 C19         1.0063   -7.7716   -3.0256 C.1       1 <0>         0.2367
     21 N1         -0.0238   -8.1490   -3.3206 N.1       1 <0>        -0.3743
     22 C20         6.1896   -5.8793   -1.5591 C.3       1 <0>         0.1393
     23 N2          6.8284   -5.2597   -2.7229 N.pl3     1 <0>        -0.4587
     24 C21         7.7438   -5.8476   -3.5284 C.2       1 <0>         0.2427
     25 N3          8.0928   -4.9974   -4.4536 N.2       1 <0>        -0.4802
     26 C22         7.4194   -3.8522   -4.2809 C.2       1 <0>         0.0628
     27 C23         6.6196   -3.9978   -3.2015 C.2       1 <0>        -0.1204
     28 C24         5.6820   -2.9532   -2.6575 C.3       1 <0>         0.0774
     29 N4          5.9522   -2.7192   -1.2370 N.4       1 <0>        -0.4985
     30 C25         5.7247   -1.3179   -0.8917 C.3       1 <0>        -0.0124
     31 C26         5.9167   -1.1027    0.6160 C.3       1 <0>        -0.1461
     32 C27         4.4767   -0.9827    1.1311 C.3       1 <0>         0.0908
     33 N5          3.6593   -0.5973   -0.0098 N.am      1 <0>        -0.5526
     34 C28         4.3059   -0.8971   -1.1801 C.2       1 <0>         0.4952
     35 O2          3.8002   -0.8246   -2.2807 O.2       1 <0>        -0.4575
     36 H1         -0.9574    1.8964    0.0169 H         1 <0>         0.1376
     37 H2          1.1650    3.1528    0.0059 H         1 <0>         0.1390
     38 H3          3.2924    1.9462   -0.0086 H         1 <0>         0.1280
     39 H4         -0.9284   -0.5536    0.0075 H         1 <0>         0.1334
     40 H5          0.1400   -2.1242    1.9055 H         1 <0>         0.1361
     41 H6         -0.2801   -4.5453    1.9990 H         1 <0>         0.1397
     42 H7          0.3293   -5.9823    0.1050 H         1 <0>         0.1347
     43 H8          1.8936   -2.6002   -1.9735 H         1 <0>         0.1297
     44 H9          3.8626   -4.5311   -1.4595 H         1 <0>         0.1128
     45 H10         5.5159   -8.3349   -2.4529 H         1 <0>         0.1487
     46 H11         3.2901   -9.1586   -3.0830 H         1 <0>         0.1550
     47 H12         6.1046   -5.1474   -0.7572 H         1 <0>         0.0790
     48 H13         6.7997   -6.7183   -1.2186 H         1 <0>         0.1334
     49 H14         8.1210   -6.8543   -3.4211 H         1 <0>         0.2218
     50 H15         7.5000   -2.9661   -4.8939 H         1 <0>         0.1843
     51 H16         5.8236   -2.0223   -3.2100 H         1 <0>         0.1643
     52 H17         4.6526   -3.2887   -2.7830 H         1 <0>         0.1394
     53 H18         5.3483   -3.3009   -0.6791 H         1 <0>         0.4179
     54 H19         6.4122   -0.6702   -1.4418 H         1 <0>         0.1832
     55 H20         6.4172   -1.9573    1.0668 H         1 <0>         0.1175
     56 H21         6.4698   -0.1843    0.8053 H         1 <0>         0.1354
     57 H22         4.1451   -1.9398    1.5369 H         1 <0>         0.0887
     58 H23         4.4259   -0.2186    1.9106 H         1 <0>         0.1105
     59 H24         6.9150   -2.9555   -1.0405 H         1 <0>         0.4382
@<TRIPOS>BOND
     1    1    6 ar
     2    1    2 ar
     3    1   36 1
     4    2    3 ar
     5    2   37 1
     6    3    4 ar
     7    3   38 1
     8    4   33 1
     9    4    5 ar
    10    5    6 ar
    11    5    7 1
    12    6   39 1
    13    7   12 ar
    14    7    8 ar
    15    8    9 ar
    16    8   40 1
    17    9   10 ar
    18    9   41 1
    19   10   11 ar
    20   10   42 1
    21   11   12 ar
    22   11   13 1
    23   12   43 1
    24   13   14 1
    25   14   19 ar
    26   14   15 ar
    27   15   16 ar
    28   15   44 1
    29   16   17 ar
    30   16   22 1
    31   17   18 ar
    32   17   45 1
    33   18   19 ar
    34   18   46 1
    35   19   20 1
    36   20   21 3
    37   22   23 1
    38   22   47 1
    39   22   48 1
    40   23   27 1
    41   23   24 1
    42   24   25 2
    43   24   49 1
    44   25   26 1
    45   26   27 2
    46   26   50 1
    47   27   28 1
    48   28   29 1
    49   28   51 1
    50   28   52 1
    51   29   30 1
    52   29   53 1
    53   29   59 1
    54   30   34 1
    55   30   31 1
    56   30   54 1
    57   31   32 1
    58   31   55 1
    59   31   56 1
    60   32   33 1
    61   32   57 1
    62   32   58 1
    63   33   34 am
    64   34   35 2
@<TRIPOS>MOLECULE
CHEMBL310586
   58    63     0     0     0
SMALL
USER_CHARGES

@<TRIPOS>ATOM
      1 C1         -0.0165    1.3674    0.0096 C.ar      1 <0>        -0.1107
      2 C2          1.1686    2.0818    0.0021 C.ar      1 <0>        -0.1013
      3 C3          2.3623    1.3945    0.0017 C.ar      1 <0>        -0.1146
      4 C4          2.4121    0.0074    0.0041 C.ar      1 <0>         0.1720
      5 C5          1.2253   -0.7187   -0.0165 C.ar      1 <0>        -0.0456
      6 C6          0.0021   -0.0041    0.0020 C.ar      1 <0>        -0.1034
      7 C7          1.0535   -2.1798   -0.1037 C.ar      1 <0>        -0.0229
      8 C8          0.4639   -2.8064    1.0164 C.ar      1 <0>        -0.1055
      9 C9          0.2565   -4.1675    1.0166 C.ar      1 <0>        -0.0994
     10 C10         0.6141   -4.9279   -0.0827 C.ar      1 <0>        -0.1267
     11 C11         1.1913   -4.3230   -1.1921 C.ar      1 <0>         0.0940
     12 C12         1.4285   -2.9550   -1.1802 C.ar      1 <0>        -0.1058
     13 O1          1.4891   -5.0538   -2.2947 O.3       1 <0>        -0.2675
     14 C13         2.5700   -5.8624   -2.3443 C.ar      1 <0>         0.1653
     15 C14         3.8128   -5.3957   -1.9422 C.ar      1 <0>        -0.1498
     16 C15         4.9187   -6.2184   -2.0128 C.ar      1 <0>        -0.0596
     17 C16         4.7955   -7.5211   -2.4703 C.ar      1 <0>        -0.1148
     18 C17         3.5670   -8.0082   -2.8637 C.ar      1 <0>        -0.0415
     19 C18         2.4411   -7.1825   -2.8064 C.ar      1 <0>        -0.0326
     20 C19         1.1636   -7.6802   -3.2193 C.1       1 <0>         0.2516
     21 N1          0.1501   -8.0750   -3.5468 N.1       1 <0>        -0.3976
     22 C20         6.2707   -5.6938   -1.5985 C.3       1 <0>         0.1408
     23 N2          6.9183   -5.0440   -2.7412 N.pl3     1 <0>        -0.4432
     24 C21         7.8265   -5.6137   -3.5669 C.2       1 <0>         0.1838
     25 N3          8.1876   -4.7367   -4.4624 N.2       1 <0>        -0.4867
     26 C22         7.5280   -3.5898   -4.2469 C.2       1 <0>        -0.0187
     27 C23         6.7261   -3.7621   -3.1741 C.2       1 <0>        -0.0034
     28 C24         5.8020   -2.7241   -2.5898 C.3       1 <0>         0.0877
     29 N4          6.0680   -2.6078   -1.1284 N.3       1 <0>        -0.5786
     30 C25         5.7951   -1.2026   -0.7296 C.3       1 <0>         0.0164
     31 C26         5.8637   -1.0996    0.8004 C.3       1 <0>        -0.1244
     32 C27         4.3753   -1.1409    1.1882 C.3       1 <0>         0.1055
     33 N5          3.6529   -0.6047    0.0404 N.am      1 <0>        -0.5829
     34 C28         4.3943   -0.7904   -1.0969 C.2       1 <0>         0.4875
     35 O2          3.9702   -0.6373   -2.2226 O.2       1 <0>        -0.4932
     36 H1         -0.9589    1.8945    0.0169 H         1 <0>         0.1299
     37 H2          1.1577    3.1605   -0.0030 H         1 <0>         0.1336
     38 H3          3.2894    1.9543    0.0013 H         1 <0>         0.1241
     39 H4         -0.9269   -0.5551    0.0087 H         1 <0>         0.1282
     40 H5          0.1770   -2.2118    1.8711 H         1 <0>         0.1317
     41 H6         -0.1878   -4.6452    1.8787 H         1 <0>         0.1357
     42 H7          0.4429   -5.9942   -0.0792 H         1 <0>         0.1308
     43 H8          1.9144   -2.4957   -2.0323 H         1 <0>         0.1305
     44 H9          3.9118   -4.3870   -1.5695 H         1 <0>         0.1291
     45 H10         5.6669   -8.1573   -2.5197 H         1 <0>         0.1434
     46 H11         3.4763   -9.0247   -3.2163 H         1 <0>         0.1483
     47 H12         6.1537   -4.9776   -0.7868 H         1 <0>         0.1090
     48 H13         6.8912   -6.5248   -1.2597 H         1 <0>         0.1114
     49 H14         8.1895   -6.6287   -3.4960 H         1 <0>         0.2046
     50 H15         7.6209   -2.6840   -4.8281 H         1 <0>         0.1670
     51 H16         5.9908   -1.7579   -3.0490 H         1 <0>         0.1039
     52 H17         4.7679   -3.0199   -2.7287 H         1 <0>         0.0665
     53 H18         5.2274   -3.1160   -0.7126 H         1 <0>         0.3092
     54 H19         6.5212   -0.5359   -1.1859 H         1 <0>         0.1256
     55 H20         6.3976   -1.9475    1.2239 H         1 <0>         0.1079
     56 H21         6.3149   -0.1569    1.1050 H         1 <0>         0.0944
     57 H22         4.0714   -2.1684    1.3895 H         1 <0>         0.0729
     58 H23         4.2046   -0.5218    2.0700 H         1 <0>         0.0881
@<TRIPOS>BOND
     1    1    6 ar
     2    1    2 ar
     3    1   36 1
     4    2    3 ar
     5    2   37 1
     6    3    4 ar
     7    3   38 1
     8    4   33 1
     9    4    5 ar
    10    5    6 ar
    11    5    7 1
    12    6   39 1
    13    7   12 ar
    14    7    8 ar
    15    8    9 ar
    16    8   40 1
    17    9   10 ar
    18    9   41 1
    19   10   11 ar
    20   10   42 1
    21   11   12 ar
    22   11   13 1
    23   12   43 1
    24   13   14 1
    25   14   19 ar
    26   14   15 ar
    27   15   16 ar
    28   15   44 1
    29   16   17 ar
    30   16   22 1
    31   17   18 ar
    32   17   45 1
    33   18   19 ar
    34   18   46 1
    35   19   20 1
    36   20   21 3
    37   22   23 1
    38   22   47 1
    39   22   48 1
    40   23   27 1
    41   23   24 1
    42   24   25 2
    43   24   49 1
    44   25   26 1
    45   26   27 2
    46   26   50 1
    47   27   28 1
    48   28   29 1
    49   28   51 1
    50   28   52 1
    51   29   30 1
    52   29   53 1
    53   30   34 1
    54   30   31 1
    55   30   54 1
    56   31   32 1
    57   31   55 1
    58   31   56 1
    59   32   33 1
    60   32   57 1
    61   32   58 1
    62   33   34 am
    63   34   35 2
@<TRIPOS>MOLECULE
CHEMBL310586
   59    64     0     0     0
SMALL
USER_CHARGES

@<TRIPOS>ATOM
      1 C1         -0.0165    1.3657    0.0096 C.ar      1 <0>        -0.1339
      2 C2          1.1773    2.0651    0.0019 C.ar      1 <0>        -0.0792
      3 C3          2.3639    1.3765    0.0023 C.ar      1 <0>        -0.1689
      4 C4          2.4065   -0.0294    0.0084 C.ar      1 <0>         0.1914
      5 C5          1.2200   -0.7385   -0.0144 C.ar      1 <0>        -0.0715
      6 C6          0.0021   -0.0041    0.0020 C.ar      1 <0>        -0.0850
      7 C7          0.9509   -2.1855   -0.1042 C.ar      1 <0>         0.0062
      8 C8          0.1602   -2.7161    0.9434 C.ar      1 <0>        -0.1049
      9 C9         -0.1664   -4.0514    0.9529 C.ar      1 <0>        -0.0984
     10 C10         0.2641   -4.8875   -0.0599 C.ar      1 <0>        -0.1387
     11 C11         1.0365   -4.3783   -1.0937 C.ar      1 <0>         0.0852
     12 C12         1.3928   -3.0342   -1.0942 C.ar      1 <0>        -0.0762
     13 O1          1.4047   -5.1878   -2.1144 O.3       1 <0>        -0.2623
     14 C13         2.2199   -6.2453   -1.8931 C.ar      1 <0>         0.1631
     15 C14         3.4274   -6.0593   -1.2343 C.ar      1 <0>        -0.1524
     16 C15         4.2968   -7.1160   -1.0592 C.ar      1 <0>        -0.0982
     17 C16         3.9491   -8.3875   -1.4798 C.ar      1 <0>        -0.1061
     18 C17         2.7337   -8.6006   -2.0966 C.ar      1 <0>        -0.0462
     19 C18         1.8593   -7.5339   -2.3148 C.ar      1 <0>        -0.0079
     20 C19         0.6026   -7.7545   -2.9645 C.1       1 <0>         0.2359
     21 N1         -0.3945   -7.9295   -3.4799 N.1       1 <0>        -0.3741
     22 C20         5.6435   -6.8667   -0.4274 C.3       1 <0>         0.1371
     23 N2          6.4875   -6.1674   -1.4028 N.pl3     1 <0>        -0.4022
     24 C21         7.4752   -6.7078   -2.1467 C.cat     1 <0>         0.2974
     25 N3          7.9957   -5.7705   -2.8946 N.pl3     1 <0>        -0.4738
     26 C22         7.3654   -4.6120   -2.6573 C.2       1 <0>         0.0204
     27 C23         6.4177   -4.8382   -1.7293 C.2       1 <0>         0.0405
     28 C24         5.4507   -3.8395   -1.1527 C.3       1 <0>         0.0581
     29 N4          6.0744   -2.4900   -1.1520 N.3       1 <0>        -0.5712
     30 C25         5.6552   -1.8384    0.1253 C.3       1 <0>         0.0094
     31 C26         6.1343   -0.3828    0.1070 C.3       1 <0>        -0.1240
     32 C27         4.8485    0.4149   -0.0620 C.3       1 <0>         0.0863
     33 N5          3.7132   -0.5284    0.0484 N.am      1 <0>        -0.5415
     34 C28         4.1529   -1.7800    0.2100 C.2       1 <0>         0.5197
     35 O2          3.4468   -2.7427    0.4232 O.2       1 <0>        -0.4974
     36 H1         -0.9559    1.8990    0.0169 H         1 <0>         0.1326
     37 H2          1.1743    3.1445   -0.0035 H         1 <0>         0.1342
     38 H3          3.2851    1.9394   -0.0054 H         1 <0>         0.1342
     39 H4         -0.9295   -0.5520    0.0068 H         1 <0>         0.1296
     40 H5         -0.1854   -2.0656    1.7331 H         1 <0>         0.1288
     41 H6         -0.7676   -4.4516    1.7568 H         1 <0>         0.1313
     42 H7         -0.0015   -5.9338   -0.0476 H         1 <0>         0.1253
     43 H8          2.0269   -2.6560   -1.8857 H         1 <0>         0.1174
     44 H9          3.6677   -5.0878   -0.8323 H         1 <0>         0.1520
     45 H10         4.6283   -9.2124   -1.3259 H         1 <0>         0.1479
     46 H11         2.4564   -9.5964   -2.4101 H         1 <0>         0.1528
     47 H12         5.5248   -6.2535    0.4649 H         1 <0>         0.1333
     48 H13         6.1047   -7.8183   -0.1612 H         1 <0>         0.1405
     49 H14         7.7838   -7.7427   -2.1279 H         1 <0>         0.2640
     50 H15         7.5797   -3.6638   -3.1281 H         1 <0>         0.2279
     51 H16         4.5544   -3.7921   -1.7650 H         1 <0>         0.1241
     52 H17         5.2104   -4.1039   -0.1277 H         1 <0>         0.0974
     53 H18         7.0956   -2.7223   -0.9509 H         1 <0>         0.3306
     54 H19         6.0780   -2.3726    0.9685 H         1 <0>         0.1024
     55 H20         6.6241   -0.1260    1.0461 H         1 <0>         0.0973
     56 H21         6.8055   -0.2089   -0.7341 H         1 <0>         0.1082
     57 H22         4.7811    1.1644    0.7272 H         1 <0>         0.0917
     58 H23         4.8349    0.8954   -1.0388 H         1 <0>         0.0927
     59 H24         8.7232   -5.8943   -3.5241 H         1 <0>         0.4668
@<TRIPOS>BOND
     1    1    6 ar
     2    1    2 ar
     3    1   36 1
     4    2    3 ar
     5    2   37 1
     6    3    4 ar
     7    3   38 1
     8    4   33 1
     9    4    5 ar
    10    5    6 ar
    11    5    7 1
    12    6   39 1
    13    7   12 ar
    14    7    8 ar
    15    8    9 ar
    16    8   40 1
    17    9   10 ar
    18    9   41 1
    19   10   11 ar
    20   10   42 1
    21   11   12 ar
    22   11   13 1
    23   12   43 1
    24   13   14 1
    25   14   19 ar
    26   14   15 ar
    27   15   16 ar
    28   15   44 1
    29   16   17 ar
    30   16   22 1
    31   17   18 ar
    32   17   45 1
    33   18   19 ar
    34   18   46 1
    35   19   20 1
    36   20   21 3
    37   22   23 1
    38   22   47 1
    39   22   48 1
    40   23   27 1
    41   23   24 1
    42   24   25 2
    43   24   49 1
    44   25   26 1
    45   25   59 1
    46   26   27 2
    47   26   50 1
    48   27   28 1
    49   28   29 1
    50   28   51 1
    51   28   52 1
    52   29   30 1
    53   29   53 1
    54   30   34 1
    55   30   31 1
    56   30   54 1
    57   31   32 1
    58   31   55 1
    59   31   56 1
    60   32   33 1
    61   32   57 1
    62   32   58 1
    63   33   34 am
    64   34   35 2
@<TRIPOS>MOLECULE
CHEMBL310586
   58    63     0     0     0
SMALL
USER_CHARGES

@<TRIPOS>ATOM
      1 C1         -0.0165    1.3658    0.0096 C.ar      1 <0>        -0.1413
      2 C2          1.1772    2.0655    0.0019 C.ar      1 <0>        -0.0822
      3 C3          2.3638    1.3768    0.0040 C.ar      1 <0>        -0.1711
      4 C4          2.4062   -0.0291    0.0111 C.ar      1 <0>         0.1993
      5 C5          1.2201   -0.7385   -0.0137 C.ar      1 <0>        -0.0724
      6 C6          0.0021   -0.0041    0.0020 C.ar      1 <0>        -0.0838
      7 C7          0.9519   -2.1856   -0.1039 C.ar      1 <0>         0.0045
      8 C8          0.1733   -2.7195    0.9508 C.ar      1 <0>        -0.1102
      9 C9         -0.1498   -4.0557    0.9618 C.ar      1 <0>        -0.1010
     10 C10         0.2728   -4.8895   -0.0563 C.ar      1 <0>        -0.1414
     11 C11         1.0326   -4.3767   -1.0973 C.ar      1 <0>         0.0941
     12 C12         1.3836   -3.0315   -1.1007 C.ar      1 <0>        -0.0750
     13 O1          1.3961   -5.1849   -2.1217 O.3       1 <0>        -0.2649
     14 C13         2.2156   -6.2398   -1.9028 C.ar      1 <0>         0.1596
     15 C14         3.4167   -6.0518   -1.2333 C.ar      1 <0>        -0.1501
     16 C15         4.2884   -7.1061   -1.0551 C.ar      1 <0>        -0.0678
     17 C16         3.9512   -8.3765   -1.4880 C.ar      1 <0>        -0.1133
     18 C17         2.7441   -8.5904   -2.1205 C.ar      1 <0>        -0.0485
     19 C18         1.8669   -7.5266   -2.3395 C.ar      1 <0>        -0.0313
     20 C19         0.6192   -7.7480   -3.0067 C.1       1 <0>         0.2520
     21 N1         -0.3705   -7.9236   -3.5359 N.1       1 <0>        -0.3989
     22 C20         5.6255   -6.8555   -0.4043 C.3       1 <0>         0.1425
     23 N2          6.4864   -6.1643   -1.3707 N.pl3     1 <0>        -0.4513
     24 C21         7.4829   -6.7118   -2.0969 C.2       1 <0>         0.1922
     25 N3          8.0183   -5.7805   -2.8417 N.2       1 <0>        -0.4902
     26 C22         7.3876   -4.6190   -2.6207 C.2       1 <0>        -0.0010
     27 C23         6.4261   -4.8365   -1.7054 C.2       1 <0>        -0.0440
     28 C24         5.4548   -3.8317   -1.1465 C.3       1 <0>         0.0835
     29 N4          6.0865   -2.4861   -1.1338 N.3       1 <0>        -0.5757
     30 C25         5.6563   -1.8370    0.1409 C.3       1 <0>         0.0087
     31 C26         6.1343   -0.3811    0.1311 C.3       1 <0>        -0.1242
     32 C27         4.8492    0.4169   -0.0419 C.3       1 <0>         0.0905
     33 N5          3.7128   -0.5279    0.0558 N.am      1 <0>        -0.5479
     34 C28         4.1532   -1.7801    0.2131 C.2       1 <0>         0.5237
     35 O2          3.4457   -2.7449    0.4130 O.2       1 <0>        -0.4940
     36 H1         -0.9557    1.8993    0.0259 H         1 <0>         0.1290
     37 H2          1.1744    3.1449   -0.0053 H         1 <0>         0.1310
     38 H3          3.2851    1.9395   -0.0034 H         1 <0>         0.1334
     39 H4         -0.9297   -0.5518    0.0072 H         1 <0>         0.1277
     40 H5         -0.1663   -2.0711    1.7449 H         1 <0>         0.1255
     41 H6         -0.7420   -4.4586    1.7710 H         1 <0>         0.1279
     42 H7          0.0116   -5.9369   -0.0418 H         1 <0>         0.1245
     43 H8          2.0049   -2.6495   -1.9007 H         1 <0>         0.1184
     44 H9          3.6522   -5.0802   -0.8279 H         1 <0>         0.1513
     45 H10         4.6315   -9.2001   -1.3301 H         1 <0>         0.1433
     46 H11         2.4761   -9.5849   -2.4462 H         1 <0>         0.1461
     47 H12         5.4944   -6.2353    0.4816 H         1 <0>         0.1034
     48 H13         6.0811   -7.8056   -0.1236 H         1 <0>         0.1150
     49 H14         7.7874   -7.7477   -2.0685 H         1 <0>         0.2068
     50 H15         7.6113   -3.6744   -3.0945 H         1 <0>         0.1735
     51 H16         4.5690   -3.7800   -1.7729 H         1 <0>         0.0957
     52 H17         5.1959   -4.0951   -0.1254 H         1 <0>         0.0717
     53 H18         7.1040   -2.7255   -0.9214 H         1 <0>         0.3353
     54 H19         6.0719   -2.3731    0.9868 H         1 <0>         0.0957
     55 H20         6.6180   -0.1278    1.0745 H         1 <0>         0.0917
     56 H21         6.8109   -0.2030   -0.7047 H         1 <0>         0.1074
     57 H22         4.7762    1.1619    0.7511 H         1 <0>         0.0869
     58 H23         4.8416    0.9028   -1.0161 H         1 <0>         0.0896
@<TRIPOS>BOND
     1    1    6 ar
     2    1    2 ar
     3    1   36 1
     4    2    3 ar
     5    2   37 1
     6    3    4 ar
     7    3   38 1
     8    4   33 1
     9    4    5 ar
    10    5    6 ar
    11    5    7 1
    12    6   39 1
    13    7   12 ar
    14    7    8 ar
    15    8    9 ar
    16    8   40 1
    17    9   10 ar
    18    9   41 1
    19   10   11 ar
    20   10   42 1
    21   11   12 ar
    22   11   13 1
    23   12   43 1
    24   13   14 1
    25   14   19 ar
    26   14   15 ar
    27   15   16 ar
    28   15   44 1
    29   16   17 ar
    30   16   22 1
    31   17   18 ar
    32   17   45 1
    33   18   19 ar
    34   18   46 1
    35   19   20 1
    36   20   21 3
    37   22   23 1
    38   22   47 1
    39   22   48 1
    40   23   27 1
    41   23   24 1
    42   24   25 2
    43   24   49 1
    44   25   26 1
    45   26   27 2
    46   26   50 1
    47   27   28 1
    48   28   29 1
    49   28   51 1
    50   28   52 1
    51   29   30 1
    52   29   53 1
    53   30   34 1
    54   30   31 1
    55   30   54 1
    56   31   32 1
    57   31   55 1
    58   31   56 1
    59   32   33 1
    60   32   57 1
    61   32   58 1
    62   33   34 am
    63   34   35 2
@<TRIPOS>MOLECULE
CHEMBL310586
   60    65     0     0     0
SMALL
USER_CHARGES

@<TRIPOS>ATOM
      1 C1         -0.0165    1.3633    0.0095 C.ar      1 <0>        -0.1142
      2 C2          1.1759    2.0647    0.0019 C.ar      1 <0>        -0.0752
      3 C3          2.3618    1.3722    0.0010 C.ar      1 <0>        -0.1630
      4 C4          2.4081   -0.0357    0.0064 C.ar      1 <0>         0.1636
      5 C5          1.2223   -0.7445   -0.0133 C.ar      1 <0>        -0.0523
      6 C6          0.0021   -0.0041    0.0020 C.ar      1 <0>        -0.0878
      7 C7          0.9351   -2.1910   -0.0943 C.ar      1 <0>        -0.0054
      8 C8          0.1258   -2.6907    0.9552 C.ar      1 <0>        -0.1027
      9 C9         -0.2285   -4.0175    0.9840 C.ar      1 <0>        -0.0910
     10 C10         0.1969   -4.8767   -0.0143 C.ar      1 <0>        -0.1314
     11 C11         0.9924   -4.4001   -1.0482 C.ar      1 <0>         0.0880
     12 C12         1.3715   -3.0589   -1.0644 C.ar      1 <0>        -0.0864
     13 O1          1.3741   -5.2217   -2.0562 O.3       1 <0>        -0.2677
     14 C13         2.1798   -6.2826   -1.8560 C.ar      1 <0>         0.1669
     15 C14         3.4185   -6.0969   -1.2581 C.ar      1 <0>        -0.1602
     16 C15         4.2781   -7.1618   -1.0894 C.ar      1 <0>        -0.1074
     17 C16         3.9005   -8.4357   -1.4687 C.ar      1 <0>        -0.0973
     18 C17         2.6619   -8.6494   -2.0331 C.ar      1 <0>        -0.0393
     19 C18         1.7904   -7.5757   -2.2354 C.ar      1 <0>         0.0063
     20 C19         0.5055   -7.7959   -2.8282 C.1       1 <0>         0.2224
     21 N1         -0.5138   -7.9706   -3.2983 N.1       1 <0>        -0.3553
     22 C20         5.6462   -6.9172   -0.5020 C.3       1 <0>         0.1296
     23 N2          6.4594   -6.1985   -1.4856 N.pl3     1 <0>        -0.3893
     24 C21         7.4005   -6.7424   -2.2894 C.cat     1 <0>         0.3393
     25 N3          7.9159   -5.7967   -3.0257 N.pl3     1 <0>        -0.4681
     26 C22         7.3300   -4.6276   -2.7266 C.2       1 <0>         0.0273
     27 C23         6.4120   -4.8607   -1.7650 C.2       1 <0>        -0.0072
     28 C24         5.5044   -3.8433   -1.1292 C.3       1 <0>         0.0507
     29 N4          6.1522   -2.5267   -1.0588 N.4       1 <0>        -0.4907
     30 C25         5.6892   -1.7974    0.1231 C.3       1 <0>        -0.0076
     31 C26         6.1444   -0.3403    0.0370 C.3       1 <0>        -0.1476
     32 C27         4.8379    0.4420   -0.0710 C.3       1 <0>         0.0659
     33 N5          3.7229   -0.5188    0.0421 N.am      1 <0>        -0.5185
     34 C28         4.1802   -1.7603    0.1987 C.2       1 <0>         0.4880
     35 O2          3.4867   -2.7353    0.4002 O.2       1 <0>        -0.4657
     36 H1         -0.9565    1.8957    0.0169 H         1 <0>         0.1402
     37 H2          1.1737    3.1441   -0.0022 H         1 <0>         0.1421
     38 H3          3.2813    1.9377   -0.0061 H         1 <0>         0.1365
     39 H4         -0.9310   -0.5498    0.0052 H         1 <0>         0.1361
     40 H5         -0.2113   -2.0214    1.7328 H         1 <0>         0.1329
     41 H6         -0.8446   -4.3934    1.7882 H         1 <0>         0.1380
     42 H7         -0.0913   -5.9165    0.0093 H         1 <0>         0.1294
     43 H8          2.0201   -2.7026   -1.8546 H         1 <0>         0.1136
     44 H9          3.6945   -5.1163   -0.9038 H         1 <0>         0.1348
     45 H10         4.5768   -9.2649   -1.3231 H         1 <0>         0.1527
     46 H11         2.3633   -9.6477   -2.3175 H         1 <0>         0.1590
     47 H12         5.5551   -6.3192    0.4043 H         1 <0>         0.1381
     48 H13         6.1186   -7.8707   -0.2652 H         1 <0>         0.1518
     49 H14         7.6788   -7.7857   -2.3181 H         1 <0>         0.2776
     50 H15         7.5536   -3.6709   -3.1750 H         1 <0>         0.2277
     51 H16         4.5935   -3.7561   -1.7247 H         1 <0>         0.1722
     52 H17         5.2491   -4.1728   -0.1214 H         1 <0>         0.1713
     53 H18         7.1531   -2.6465   -1.0049 H         1 <0>         0.4389
     54 H19         6.0938   -2.2496    1.0316 H         1 <0>         0.1850
     55 H20         6.6906   -0.0552    0.9359 H         1 <0>         0.1400
     56 H21         6.7598   -0.1834   -0.8492 H         1 <0>         0.1199
     57 H22         4.7813    1.1675    0.7417 H         1 <0>         0.1161
     58 H23         4.7890    0.9522   -1.0320 H         1 <0>         0.1113
     59 H24         8.6140   -5.9197   -3.6878 H         1 <0>         0.4771
     60 H25         5.9256   -1.9970   -1.8880 H         1 <0>         0.4409
@<TRIPOS>BOND
     1    1    6 ar
     2    1    2 ar
     3    1   36 1
     4    2    3 ar
     5    2   37 1
     6    3    4 ar
     7    3   38 1
     8    4   33 1
     9    4    5 ar
    10    5    6 ar
    11    5    7 1
    12    6   39 1
    13    7   12 ar
    14    7    8 ar
    15    8    9 ar
    16    8   40 1
    17    9   10 ar
    18    9   41 1
    19   10   11 ar
    20   10   42 1
    21   11   12 ar
    22   11   13 1
    23   12   43 1
    24   13   14 1
    25   14   19 ar
    26   14   15 ar
    27   15   16 ar
    28   15   44 1
    29   16   17 ar
    30   16   22 1
    31   17   18 ar
    32   17   45 1
    33   18   19 ar
    34   18   46 1
    35   19   20 1
    36   20   21 3
    37   22   23 1
    38   22   47 1
    39   22   48 1
    40   23   27 1
    41   23   24 1
    42   24   25 2
    43   24   49 1
    44   25   26 1
    45   25   59 1
    46   26   27 2
    47   26   50 1
    48   27   28 1
    49   28   29 1
    50   28   51 1
    51   28   52 1
    52   29   30 1
    53   29   53 1
    54   29   60 1
    55   30   34 1
    56   30   31 1
    57   30   54 1
    58   31   32 1
    59   31   55 1
    60   31   56 1
    61   32   33 1
    62   32   57 1
    63   32   58 1
    64   33   34 am
    65   34   35 2
@<TRIPOS>MOLECULE
CHEMBL310586
   59    64     0     0     0
SMALL
USER_CHARGES

@<TRIPOS>ATOM
      1 C1         -0.0165    1.3633    0.0095 C.ar      1 <0>        -0.1212
      2 C2          1.1756    2.0647    0.0019 C.ar      1 <0>        -0.0786
      3 C3          2.3615    1.3728    0.0005 C.ar      1 <0>        -0.1647
      4 C4          2.4081   -0.0352    0.0049 C.ar      1 <0>         0.1719
      5 C5          1.2224   -0.7443   -0.0147 C.ar      1 <0>        -0.0531
      6 C6          0.0021   -0.0041    0.0020 C.ar      1 <0>        -0.0868
      7 C7          0.9351   -2.1906   -0.0973 C.ar      1 <0>        -0.0077
      8 C8          0.1265   -2.6920    0.9519 C.ar      1 <0>        -0.1082
      9 C9         -0.2247   -4.0198    0.9810 C.ar      1 <0>        -0.0937
     10 C10         0.2023   -4.8779   -0.0177 C.ar      1 <0>        -0.1346
     11 C11         0.9937   -4.3986   -1.0534 C.ar      1 <0>         0.0967
     12 C12         1.3696   -3.0568   -1.0698 C.ar      1 <0>        -0.0847
     13 O1          1.3752   -5.2190   -2.0627 O.3       1 <0>        -0.2701
     14 C13         2.1824   -6.2790   -1.8625 C.ar      1 <0>         0.1629
     15 C14         3.4178   -6.0923   -1.2582 C.ar      1 <0>        -0.1568
     16 C15         4.2787   -7.1560   -1.0890 C.ar      1 <0>        -0.0777
     17 C16         3.9052   -8.4298   -1.4731 C.ar      1 <0>        -0.1055
     18 C17         2.6696   -8.6443   -2.0437 C.ar      1 <0>        -0.0416
     19 C18         1.7971   -7.5715   -2.2478 C.ar      1 <0>        -0.0172
     20 C19         0.5159   -7.7925   -2.8482 C.1       1 <0>         0.2386
     21 N1         -0.5004   -7.9678   -3.3244 N.1       1 <0>        -0.3799
     22 C20         5.6440   -6.9115   -0.4951 C.3       1 <0>         0.1354
     23 N2          6.4625   -6.1934   -1.4746 N.pl3     1 <0>        -0.4346
     24 C21         7.4101   -6.7381   -2.2707 C.2       1 <0>         0.2352
     25 N3          7.9309   -5.7934   -3.0044 N.2       1 <0>        -0.4767
     26 C22         7.3417   -4.6243   -2.7126 C.2       1 <0>         0.0087
     27 C23         6.4166   -4.8563   -1.7572 C.2       1 <0>        -0.0980
     28 C24         5.5054   -3.8370   -1.1305 C.3       1 <0>         0.0709
     29 N4          6.1547   -2.5207   -1.0613 N.4       1 <0>        -0.4885
     30 C25         5.6911   -1.7938    0.1220 C.3       1 <0>        -0.0050
     31 C26         6.1455   -0.3367    0.0404 C.3       1 <0>        -0.1489
     32 C27         4.8387    0.4451   -0.0679 C.3       1 <0>         0.0705
     33 N5          3.7230   -0.5173    0.0398 N.am      1 <0>        -0.5272
     34 C28         4.1814   -1.7586    0.1925 C.2       1 <0>         0.4932
     35 O2          3.4884   -2.7357    0.3834 O.2       1 <0>        -0.4612
     36 H1         -0.9567    1.8956    0.0169 H         1 <0>         0.1367
     37 H2          1.1735    3.1445   -0.0021 H         1 <0>         0.1389
     38 H3          3.2812    1.9381   -0.0059 H         1 <0>         0.1357
     39 H4         -0.9307   -0.5501    0.0072 H         1 <0>         0.1342
     40 H5         -0.2138   -2.0233    1.7287 H         1 <0>         0.1298
     41 H6         -0.8396   -4.3972    1.7852 H         1 <0>         0.1346
     42 H7         -0.0801   -5.9193    0.0081 H         1 <0>         0.1284
     43 H8          2.0132   -2.6977   -1.8628 H         1 <0>         0.1151
     44 H9          3.6897   -5.1122   -0.8993 H         1 <0>         0.1350
     45 H10         4.5823   -9.2579   -1.3259 H         1 <0>         0.1479
     46 H11         2.3739   -9.6426   -2.3314 H         1 <0>         0.1523
     47 H12         5.5492   -6.3152    0.4114 H         1 <0>         0.1087
     48 H13         6.1149   -7.8659   -0.2574 H         1 <0>         0.1267
     49 H14         7.6885   -7.7814   -2.2962 H         1 <0>         0.2222
     50 H15         7.5668   -3.6679   -3.1606 H         1 <0>         0.1738
     51 H16         4.5978   -3.7516   -1.7304 H         1 <0>         0.1452
     52 H17         5.2452   -4.1620   -0.1225 H         1 <0>         0.1457
     53 H18         7.1554   -2.6410   -1.0080 H         1 <0>         0.4403
     54 H19         6.0931   -2.2490    1.0300 H         1 <0>         0.1791
     55 H20         6.6899   -0.0532    0.9411 H         1 <0>         0.1351
     56 H21         6.7628   -0.1767   -0.8441 H         1 <0>         0.1191
     57 H22         4.7803    1.1687    0.7463 H         1 <0>         0.1114
     58 H23         4.7915    0.9573   -1.0281 H         1 <0>         0.1078
     59 H24         5.9263   -1.9907   -1.8896 H         1 <0>         0.4344
@<TRIPOS>BOND
     1    1    6 ar
     2    1    2 ar
     3    1   36 1
     4    2    3 ar
     5    2   37 1
     6    3    4 ar
     7    3   38 1
     8    4   33 1
     9    4    5 ar
    10    5    6 ar
    11    5    7 1
    12    6   39 1
    13    7   12 ar
    14    7    8 ar
    15    8    9 ar
    16    8   40 1
    17    9   10 ar
    18    9   41 1
    19   10   11 ar
    20   10   42 1
    21   11   12 ar
    22   11   13 1
    23   12   43 1
    24   13   14 1
    25   14   19 ar
    26   14   15 ar
    27   15   16 ar
    28   15   44 1
    29   16   17 ar
    30   16   22 1
    31   17   18 ar
    32   17   45 1
    33   18   19 ar
    34   18   46 1
    35   19   20 1
    36   20   21 3
    37   22   23 1
    38   22   47 1
    39   22   48 1
    40   23   27 1
    41   23   24 1
    42   24   25 2
    43   24   49 1
    44   25   26 1
    45   26   27 2
    46   26   50 1
    47   27   28 1
    48   28   29 1
    49   28   51 1
    50   28   52 1
    51   29   30 1
    52   29   53 1
    53   29   59 1
    54   30   34 1
    55   30   31 1
    56   30   54 1
    57   31   32 1
    58   31   55 1
    59   31   56 1
    60   32   33 1
    61   32   57 1
    62   32   58 1
    63   33   34 am
    64   34   35 2
@<TRIPOS>MOLECULE
CHEMBL75
   65    69     0     0     0
SMALL
USER_CHARGES

@<TRIPOS>ATOM
      1 C1          2.3952   -0.7566    1.2944 C.3       1 <0>        -0.1769
      2 C2          2.3911    0.0040   -0.0066 C.2       1 <0>         0.5131
      3 O1          2.3896    1.2168   -0.0000 O.2       1 <0>        -0.5379
      4 N1          2.3891   -0.6636   -1.1775 N.am      1 <0>        -0.6168
      5 C3          2.3847   -2.1330   -1.2007 C.3       1 <0>         0.0880
      6 C4          1.1892   -2.6064   -2.0367 C.3       1 <0>         0.1074
      7 N2          1.1909   -1.8779   -3.3131 N.pl3     1 <0>        -0.6288
      8 C5          1.1953   -0.4084   -3.2899 C.3       1 <0>         0.1075
      9 C6          2.3851    0.0650   -2.4538 C.3       1 <0>         0.0939
     10 C7          1.1889   -2.5710   -4.5288 C.ar      1 <0>         0.1979
     11 C8          1.0744   -1.8751   -5.7250 C.ar      1 <0>        -0.1550
     12 C9          1.0730   -2.5599   -6.9243 C.ar      1 <0>        -0.0884
     13 C10         1.1857   -3.9423   -6.9342 C.ar      1 <0>         0.0598
     14 C11         1.2996   -4.6382   -5.7398 C.ar      1 <0>        -0.1607
     15 C12         1.3070   -3.9545   -4.5398 C.ar      1 <0>        -0.1648
     16 O2          1.1842   -4.6158   -8.1157 O.3       1 <0>        -0.3025
     17 C13         1.3038   -6.0384   -8.0517 C.3       1 <0>         0.0718
     18 C14         1.2832   -6.6162   -9.4682 C.3       1 <0>         0.0418
     19 H1          2.0470   -6.1445  -10.0864 H         1 <0>         0.1182
     20 C15         1.4773   -8.1528   -9.4356 C.3       1 <0>         0.0171
     21 O3          0.8192   -8.5585  -10.6598 O.3       1 <0>        -0.3351
     22 C16        -0.3038   -7.6699  -10.7853 C.3       1 <0>         0.2895
     23 O4         -0.0212   -6.4609  -10.0630 O.3       1 <0>        -0.3427
     24 C17        -1.5539   -8.3365  -10.2076 C.3       1 <0>         0.0734
     25 N3         -1.3272   -8.6598   -8.7968 N.pl3     1 <0>        -0.4078
     26 C18        -0.8030   -9.8246   -8.3045 C.2       1 <0>         0.0278
     27 C19        -0.7691   -9.7006   -6.9640 C.2       1 <0>         0.0030
     28 N4         -1.2593   -8.4932   -6.6464 N.pl3     1 <0>        -0.4770
     29 C20        -1.5909   -7.8622   -7.7395 C.cat     1 <0>         0.2940
     30 C21        -0.5327   -7.3454  -12.2390 C.ar      1 <0>        -0.1043
     31 C22        -1.7448   -7.6464  -12.8317 C.ar      1 <0>        -0.0827
     32 C23        -1.9555   -7.3492  -14.1648 C.ar      1 <0>        -0.1016
     33 C24        -0.9533   -6.7497  -14.9071 C.ar      1 <0>        -0.0034
     34 C25         0.2595   -6.4479  -14.3146 C.ar      1 <0>        -0.1013
     35 C26         0.4681   -6.7413  -12.9787 C.ar      1 <0>         0.0199
     36 Cl1         1.9878   -6.3574  -12.2325 Cl        1 <0>        -0.0376
     37 Cl2        -1.2179   -6.3769  -16.5818 Cl        1 <0>        -0.0328
     38 H2          1.3685   -0.9413    1.6105 H         1 <0>         0.0959
     39 H3          2.9099   -1.7076    1.1576 H         1 <0>         0.0825
     40 H4          2.9101   -0.1710    2.0560 H         1 <0>         0.0973
     41 H5          3.3104   -2.4946   -1.6485 H         1 <0>         0.0751
     42 H6          2.2940   -2.5147   -0.1837 H         1 <0>         0.1017
     43 H7          1.2760   -3.6763   -2.2261 H         1 <0>         0.0935
     44 H8          0.2632   -2.4013   -1.4997 H         1 <0>         0.0702
     45 H9          1.2861   -0.0267   -4.3068 H         1 <0>         0.0966
     46 H10         0.2697   -0.0468   -2.8421 H         1 <0>         0.0703
     47 H11         2.2946    1.1346   -2.2643 H         1 <0>         0.1056
     48 H12         3.3108   -0.1365   -2.9929 H         1 <0>         0.0723
     49 H13         0.9862   -0.7987   -5.7174 H         1 <0>         0.1346
     50 H14         0.9836   -2.0189   -7.8548 H         1 <0>         0.1337
     51 H15         1.3871   -5.7146   -5.7484 H         1 <0>         0.1169
     52 H16         1.4005   -4.4961   -3.6102 H         1 <0>         0.1268
     53 H17         2.2428   -6.3025   -7.5652 H         1 <0>         0.0838
     54 H18         0.4708   -6.4477   -7.4801 H         1 <0>         0.0478
     55 H19         2.5356   -8.4130   -9.4568 H         1 <0>         0.1309
     56 H20         0.9869   -8.5897   -8.5657 H         1 <0>         0.0711
     57 H21        -2.4009   -7.6558  -10.2928 H         1 <0>         0.1447
     58 H22        -1.7661   -9.2516  -10.7605 H         1 <0>         0.1499
     59 H23        -0.4792  -10.6788   -8.8804 H         1 <0>         0.2267
     60 H24        -0.4102  -10.4433   -6.2668 H         1 <0>         0.2279
     61 H25        -2.0094   -6.8678   -7.7900 H         1 <0>         0.2604
     62 H26        -2.5273   -8.1143  -12.2528 H         1 <0>         0.1442
     63 H27        -2.9024   -7.5852  -14.6275 H         1 <0>         0.1520
     64 H28         1.0420   -5.9800  -14.8935 H         1 <0>         0.1548
     65 H29        -1.3495   -8.1428   -5.7464 H         1 <0>         0.4664
@<TRIPOS>BOND
     1    1    2 1
     2    1   38 1
     3    1   39 1
     4    1   40 1
     5    2    3 2
     6    2    4 am
     7    4    9 1
     8    4    5 1
     9    5    6 1
    10    5   41 1
    11    5   42 1
    12    6    7 1
    13    6   43 1
    14    6   44 1
    15    7    8 1
    16    7   10 1
    17    8    9 1
    18    8   45 1
    19    8   46 1
    20    9   47 1
    21    9   48 1
    22   10   15 ar
    23   10   11 ar
    24   11   12 ar
    25   11   49 1
    26   12   13 ar
    27   12   50 1
    28   13   14 ar
    29   13   16 1
    30   14   15 ar
    31   14   51 1
    32   15   52 1
    33   16   17 1
    34   17   18 1
    35   17   53 1
    36   17   54 1
    37   18   19 1
    38   18   23 1
    39   18   20 1
    40   20   21 1
    41   20   55 1
    42   20   56 1
    43   21   22 1
    44   22   23 1
    45   22   24 1
    46   22   30 1
    47   24   25 1
    48   24   57 1
    49   24   58 1
    50   25   29 1
    51   25   26 1
    52   26   27 2
    53   26   59 1
    54   27   28 1
    55   27   60 1
    56   28   29 2
    57   28   65 1
    58   29   61 1
    59   30   35 ar
    60   30   31 ar
    61   31   32 ar
    62   31   62 1
    63   32   33 ar
    64   32   63 1
    65   33   34 ar
    66   33   37 1
    67   34   35 ar
    68   34   64 1
    69   35   36 1
@<TRIPOS>MOLECULE
CHEMBL75
   64    68     0     0     0
SMALL
USER_CHARGES

@<TRIPOS>ATOM
      1 C1          2.3952   -0.7566    1.2944 C.3       1 <0>        -0.1767
      2 C2          2.3911    0.0040   -0.0066 C.2       1 <0>         0.5130
      3 O1          2.3896    1.2168   -0.0000 O.2       1 <0>        -0.5442
      4 N1          2.3891   -0.6636   -1.1775 N.am      1 <0>        -0.6141
      5 C3          2.3847   -2.1330   -1.2007 C.3       1 <0>         0.0878
      6 C4          1.1892   -2.6064   -2.0367 C.3       1 <0>         0.1078
      7 N2          1.1909   -1.8779   -3.3131 N.pl3     1 <0>        -0.6321
      8 C5          1.1953   -0.4084   -3.2899 C.3       1 <0>         0.1101
      9 C6          2.3851    0.0650   -2.4538 C.3       1 <0>         0.0944
     10 C7          1.1889   -2.5710   -4.5288 C.ar      1 <0>         0.1865
     11 C8          1.0744   -1.8751   -5.7250 C.ar      1 <0>        -0.1585
     12 C9          1.0730   -2.5599   -6.9243 C.ar      1 <0>        -0.0979
     13 C10         1.1857   -3.9423   -6.9342 C.ar      1 <0>         0.0730
     14 C11         1.2996   -4.6382   -5.7398 C.ar      1 <0>        -0.1524
     15 C12         1.3070   -3.9545   -4.5398 C.ar      1 <0>        -0.1572
     16 O2          1.1842   -4.6158   -8.1157 O.3       1 <0>        -0.3076
     17 C13         1.3038   -6.0384   -8.0517 C.3       1 <0>         0.0627
     18 C14         1.2832   -6.6162   -9.4682 C.3       1 <0>         0.0525
     19 H1          2.0470   -6.1445  -10.0864 H         1 <0>         0.1034
     20 C15         1.4773   -8.1528   -9.4356 C.3       1 <0>         0.0176
     21 O3          0.8192   -8.5585  -10.6598 O.3       1 <0>        -0.3446
     22 C16        -0.3038   -7.6699  -10.7853 C.3       1 <0>         0.2885
     23 O4         -0.0212   -6.4609  -10.0630 O.3       1 <0>        -0.3418
     24 C17        -1.5539   -8.3365  -10.2076 C.3       1 <0>         0.0862
     25 N3         -1.3272   -8.6598   -8.7968 N.pl3     1 <0>        -0.4574
     26 C18        -0.8034   -9.8247   -8.3045 C.2       1 <0>        -0.0546
     27 C19        -0.7694   -9.7007   -6.9639 C.2       1 <0>        -0.0288
     28 N4         -1.2590   -8.4931   -6.6464 N.2       1 <0>        -0.4901
     29 C20        -1.5905   -7.8620   -7.7395 C.2       1 <0>         0.1921
     30 C21        -0.5327   -7.3454  -12.2390 C.ar      1 <0>        -0.0908
     31 C22        -1.7448   -7.6464  -12.8317 C.ar      1 <0>        -0.0801
     32 C23        -1.9555   -7.3492  -14.1648 C.ar      1 <0>        -0.1051
     33 C24        -0.9533   -6.7497  -14.9071 C.ar      1 <0>        -0.0106
     34 C25         0.2595   -6.4479  -14.3146 C.ar      1 <0>        -0.1056
     35 C26         0.4681   -6.7413  -12.9787 C.ar      1 <0>         0.0157
     36 Cl1         1.9878   -6.3574  -12.2325 Cl        1 <0>        -0.0398
     37 Cl2        -1.2179   -6.3769  -16.5818 Cl        1 <0>        -0.0468
     38 H2          1.3685   -0.9413    1.6105 H         1 <0>         0.0955
     39 H3          2.9099   -1.7076    1.1576 H         1 <0>         0.0831
     40 H4          2.9101   -0.1710    2.0560 H         1 <0>         0.0949
     41 H5          3.3104   -2.4946   -1.6485 H         1 <0>         0.0755
     42 H6          2.2940   -2.5147   -0.1837 H         1 <0>         0.0998
     43 H7          1.2760   -3.6763   -2.2261 H         1 <0>         0.0964
     44 H8          0.2632   -2.4013   -1.4997 H         1 <0>         0.0675
     45 H9          1.2861   -0.0267   -4.3068 H         1 <0>         0.0956
     46 H10         0.2697   -0.0468   -2.8421 H         1 <0>         0.0662
     47 H11         2.2946    1.1346   -2.2643 H         1 <0>         0.1025
     48 H12         3.3108   -0.1365   -2.9929 H         1 <0>         0.0717
     49 H13         0.9862   -0.7987   -5.7174 H         1 <0>         0.1295
     50 H14         0.9836   -2.0189   -7.8548 H         1 <0>         0.1298
     51 H15         1.3871   -5.7146   -5.7484 H         1 <0>         0.1258
     52 H16         1.4005   -4.4961   -3.6102 H         1 <0>         0.1257
     53 H17         2.2428   -6.3025   -7.5652 H         1 <0>         0.0751
     54 H18         0.4708   -6.4477   -7.4801 H         1 <0>         0.0780
     55 H19         2.5356   -8.4130   -9.4568 H         1 <0>         0.1155
     56 H20         0.9869   -8.5897   -8.5657 H         1 <0>         0.0940
     57 H21        -2.4009   -7.6558  -10.2928 H         1 <0>         0.1159
     58 H22        -1.7661   -9.2516  -10.7605 H         1 <0>         0.1162
     59 H23        -0.4800  -10.6792   -8.8804 H         1 <0>         0.1749
     60 H24        -0.4107  -10.4435   -6.2668 H         1 <0>         0.1706
     61 H25        -2.0085   -6.8675   -7.7901 H         1 <0>         0.2017
     62 H26        -2.5273   -8.1143  -12.2528 H         1 <0>         0.1465
     63 H27        -2.9024   -7.5852  -14.6275 H         1 <0>         0.1478
     64 H28         1.0420   -5.9800  -14.8935 H         1 <0>         0.1500
@<TRIPOS>BOND
     1    1    2 1
     2    1   38 1
     3    1   39 1
     4    1   40 1
     5    2    3 2
     6    2    4 am
     7    4    9 1
     8    4    5 1
     9    5    6 1
    10    5   41 1
    11    5   42 1
    12    6    7 1
    13    6   43 1
    14    6   44 1
    15    7    8 1
    16    7   10 1
    17    8    9 1
    18    8   45 1
    19    8   46 1
    20    9   47 1
    21    9   48 1
    22   10   15 ar
    23   10   11 ar
    24   11   12 ar
    25   11   49 1
    26   12   13 ar
    27   12   50 1
    28   13   14 ar
    29   13   16 1
    30   14   15 ar
    31   14   51 1
    32   15   52 1
    33   16   17 1
    34   17   18 1
    35   17   53 1
    36   17   54 1
    37   18   19 1
    38   18   23 1
    39   18   20 1
    40   20   21 1
    41   20   55 1
    42   20   56 1
    43   21   22 1
    44   22   23 1
    45   22   24 1
    46   22   30 1
    47   24   25 1
    48   24   57 1
    49   24   58 1
    50   25   29 1
    51   25   26 1
    52   26   27 2
    53   26   59 1
    54   27   28 1
    55   27   60 1
    56   28   29 2
    57   29   61 1
    58   30   35 ar
    59   30   31 ar
    60   31   32 ar
    61   31   62 1
    62   32   33 ar
    63   32   63 1
    64   33   34 ar
    65   33   37 1
    66   34   35 ar
    67   34   64 1
    68   35   36 1
@<TRIPOS>MOLECULE
CHEMBL1159655
   86    89     0     0     0
SMALL
USER_CHARGES

@<TRIPOS>ATOM
      1 C1         -2.8885   -5.4156   -0.6339 C.3       1 <0>        -0.1182
      2 C2         -2.8867   -4.3456    0.4273 C.ar      1 <0>        -0.0424
      3 C3         -2.2485   -3.1274    0.1918 C.ar      1 <0>        -0.1370
      4 C4         -2.2511   -2.1415    1.1795 C.ar      1 <0>        -0.0941
      5 C5         -2.8836   -2.3740    2.3839 C.ar      1 <0>        -0.1150
      6 C6         -3.5152   -3.5816    2.6160 C.ar      1 <0>        -0.1070
      7 C7         -3.5231   -4.5662    1.6370 C.ar      1 <0>         0.1006
      8 O1         -4.1508   -5.7493    1.8684 O.3       1 <0>        -0.4908
      9 C8         -1.5714   -2.8821   -1.0996 C.2       1 <0>         0.5668
     10 O2         -1.6620   -3.6962   -1.9976 O.2       1 <0>        -0.5061
     11 N1         -0.8537   -1.7558   -1.2809 N.am      1 <0>        -0.7339
     12 C9         -0.2746   -1.4596   -2.5936 C.3       1 <0>         0.1339
     13 H1         -0.4520   -2.2984   -3.2666 H         1 <0>         0.1344
     14 C10         1.2314   -1.2329   -2.4472 C.3       1 <0>        -0.1262
     15 S1          2.0252   -2.7727   -1.9089 S.3       1 <0>        -0.0867
     16 C11         3.7321   -2.3528   -1.7883 C.ar      1 <0>        -0.0930
     17 C12         4.1543   -1.0618   -2.0824 C.ar      1 <0>        -0.1343
     18 C13         5.4929   -0.7364   -1.9868 C.ar      1 <0>        -0.1000
     19 C14         6.4129   -1.6933   -1.5990 C.ar      1 <0>        -0.1183
     20 C15         5.9965   -2.9792   -1.3060 C.ar      1 <0>        -0.0971
     21 C16         4.6588   -3.3103   -1.3933 C.ar      1 <0>        -0.0975
     22 C17        -0.9267   -0.1995   -3.1661 C.3       1 <0>         0.0882
     23 H2         -0.4869    0.0280   -4.1372 H         1 <0>         0.1393
     24 C18        -2.4301   -0.4323   -3.3290 C.3       1 <0>        -0.0507
     25 N2         -3.0229    0.6924   -4.0649 N.4       1 <0>        -0.3612
     26 C19        -2.9497    1.9058   -3.2419 C.3       1 <0>        -0.0282
     27 C20        -3.4896    3.0965   -4.0408 C.3       1 <0>        -0.1039
     28 H3         -3.4298    4.0009   -3.4354 H         1 <0>         0.1219
     29 C21        -2.6494    3.2696   -5.3083 C.3       1 <0>        -0.1298
     30 C22        -3.1996    4.4336   -6.1341 C.3       1 <0>        -0.1202
     31 C23        -4.6483    4.1369   -6.5278 C.3       1 <0>        -0.1285
     32 C24        -5.4927    3.9705   -5.2630 C.3       1 <0>        -0.1152
     33 C25        -4.9488    2.8225   -4.4135 C.3       1 <0>        -0.0892
     34 H4         -5.5416    2.7206   -3.5044 H         1 <0>         0.0908
     35 C26        -5.0260    1.5192   -5.2120 C.3       1 <0>        -0.1337
     36 C27        -4.4226    0.3845   -4.3806 C.3       1 <0>         0.0049
     37 H5         -4.9872    0.2735   -3.4548 H         1 <0>         0.1504
     38 C28        -4.4887   -0.9011   -5.1641 C.2       1 <0>         0.5046
     39 O3         -3.5688   -1.2179   -5.8882 O.2       1 <0>        -0.5160
     40 N3         -5.5701   -1.6988   -5.0602 N.am      1 <0>        -0.6939
     41 C29        -5.6343   -2.9486   -5.8219 C.3       1 <0>         0.1675
     42 C30        -4.4680   -3.8526   -5.4178 C.3       1 <0>        -0.1649
     43 C31        -6.9566   -3.6590   -5.5256 C.3       1 <0>        -0.1613
     44 C32        -5.5455   -2.6393   -7.3177 C.3       1 <0>        -0.1674
     45 O4         -0.7082    0.8965   -2.2756 O.3       1 <0>        -0.5402
     46 H6         -3.6925   -5.2217   -1.3439 H         1 <0>         0.0756
     47 H7         -1.9324   -5.4099   -1.1572 H         1 <0>         0.0951
     48 H8         -3.0420   -6.3890   -0.1681 H         1 <0>         0.0648
     49 H9         -1.7580   -1.1972    1.0017 H         1 <0>         0.1244
     50 H10        -2.8850   -1.6103    3.1475 H         1 <0>         0.1366
     51 H11        -4.0080   -3.7582    3.5607 H         1 <0>         0.1383
     52 H12        -3.5845   -6.4233    2.2685 H         1 <0>         0.3968
     53 H13        -0.7206   -1.1413   -0.5423 H         1 <0>         0.4035
     54 H14         1.6476   -0.9258   -3.4067 H         1 <0>         0.1051
     55 H15         1.4113   -0.4534   -1.7069 H         1 <0>         0.1016
     56 H16         3.4365   -0.3141   -2.3857 H         1 <0>         0.1195
     57 H17         5.8217    0.2666   -2.2156 H         1 <0>         0.1274
     58 H18         7.4592   -1.4360   -1.5251 H         1 <0>         0.1289
     59 H19         6.7178   -3.7240   -1.0037 H         1 <0>         0.1318
     60 H20         4.3336   -4.3132   -1.1594 H         1 <0>         0.1280
     61 H21        -2.5968   -1.3566   -3.8823 H         1 <0>         0.1480
     62 H22        -2.8946   -0.5085   -2.3459 H         1 <0>         0.1325
     63 H23        -3.5487    1.7708   -2.3413 H         1 <0>         0.1248
     64 H24        -1.9128    2.0946   -2.9641 H         1 <0>         0.1704
     65 H25        -1.6154    3.4770   -5.0328 H         1 <0>         0.0821
     66 H26        -2.6906    2.3544   -5.8988 H         1 <0>         0.0545
     67 H27        -3.1636    5.3483   -5.5423 H         1 <0>         0.0734
     68 H28        -2.5966    4.5582   -7.0336 H         1 <0>         0.0738
     69 H29        -5.0405    4.9630   -7.1209 H         1 <0>         0.0750
     70 H30        -4.6853    3.2184   -7.1134 H         1 <0>         0.0639
     71 H31        -5.4570    4.8904   -4.6794 H         1 <0>         0.0766
     72 H32        -6.5250    3.7582   -5.5414 H         1 <0>         0.0746
     73 H33        -6.0677    1.2913   -5.4377 H         1 <0>         0.1147
     74 H34        -4.4662    1.6275   -6.1410 H         1 <0>         0.1018
     75 H35        -6.3058   -1.4454   -4.4811 H         1 <0>         0.4068
     76 H36        -4.5313   -4.0729   -4.3522 H         1 <0>         0.0595
     77 H37        -4.5158   -4.7824   -5.9846 H         1 <0>         0.0744
     78 H38        -3.5260   -3.3465   -5.6289 H         1 <0>         0.0750
     79 H39        -7.7875   -3.0149   -5.8134 H         1 <0>         0.0665
     80 H40        -7.0044   -4.5888   -6.0923 H         1 <0>         0.0843
     81 H41        -7.0199   -3.8793   -4.4600 H         1 <0>         0.0663
     82 H42        -4.6035   -2.1332   -7.5287 H         1 <0>         0.0769
     83 H43        -5.5933   -3.5692   -7.8844 H         1 <0>         0.0742
     84 H44        -6.3764   -1.9953   -7.6055 H         1 <0>         0.0582
     85 H45        -1.0116    0.7354   -1.3717 H         1 <0>         0.3861
     86 H46        -2.5107    0.8392   -4.9218 H         1 <0>         0.4275
@<TRIPOS>BOND
     1    1    2 1
     2    1   46 1
     3    1   47 1
     4    1   48 1
     5    2    7 ar
     6    2    3 ar
     7    3    4 ar
     8    3    9 1
     9    4    5 ar
    10    4   49 1
    11    5    6 ar
    12    5   50 1
    13    6    7 ar
    14    6   51 1
    15    7    8 1
    16    8   52 1
    17    9   10 2
    18    9   11 am
    19   11   12 1
    20   11   53 1
    21   12   13 1
    22   12   14 1
    23   12   22 1
    24   14   15 1
    25   14   54 1
    26   14   55 1
    27   15   16 1
    28   16   21 ar
    29   16   17 ar
    30   17   18 ar
    31   17   56 1
    32   18   19 ar
    33   18   57 1
    34   19   20 ar
    35   19   58 1
    36   20   21 ar
    37   20   59 1
    38   21   60 1
    39   22   23 1
    40   22   24 1
    41   22   45 1
    42   24   25 1
    43   24   61 1
    44   24   62 1
    45   25   36 1
    46   25   26 1
    47   25   86 1
    48   26   27 1
    49   26   63 1
    50   26   64 1
    51   27   28 1
    52   27   33 1
    53   27   29 1
    54   29   30 1
    55   29   65 1
    56   29   66 1
    57   30   31 1
    58   30   67 1
    59   30   68 1
    60   31   32 1
    61   31   69 1
    62   31   70 1
    63   32   33 1
    64   32   71 1
    65   32   72 1
    66   33   34 1
    67   33   35 1
    68   35   36 1
    69   35   73 1
    70   35   74 1
    71   36   37 1
    72   36   38 1
    73   38   39 2
    74   38   40 am
    75   40   41 1
    76   40   75 1
    77   41   42 1
    78   41   43 1
    79   41   44 1
    80   42   76 1
    81   42   77 1
    82   42   78 1
    83   43   79 1
    84   43   80 1
    85   43   81 1
    86   44   82 1
    87   44   83 1
    88   44   84 1
    89   45   85 1
@<TRIPOS>MOLECULE
CHEMBL479418
   76    80     0     0     0
SMALL
USER_CHARGES

@<TRIPOS>ATOM
      1 C1         -0.3711    1.5310    0.3801 C.3       1 <0>        -0.1820
      2 C2         -0.3003    0.0036    0.3240 C.3       1 <0>         0.0323
      3 H1          0.2330   -0.3025   -0.5760 H         1 <0>         0.1470
      4 C3         -1.7179   -0.5720    0.2976 C.3       1 <0>         0.0299
      5 N1         -1.6470   -2.0397    0.2631 N.3       1 <0>        -0.5339
      6 C4         -0.9168   -2.5546    1.4300 C.3       1 <0>         0.0259
      7 C5          0.4942   -1.9626    1.4471 C.3       1 <0>         0.0325
      8 H2          1.0234   -2.2586    0.5413 H         1 <0>         0.1472
      9 N2          0.4098   -0.4974    1.5081 N.4       1 <0>        -0.5063
     10 C6          1.2501   -2.4813    2.6720 C.3       1 <0>        -0.1819
     11 C7         -2.9897   -2.6298    0.1798 C.3       1 <0>         0.0991
     12 C8         -2.8731   -4.1060   -0.0998 C.ar      1 <0>        -0.0929
     13 C9         -2.8382   -4.5591   -1.4064 C.ar      1 <0>        -0.0895
     14 C10        -2.7312   -5.9096   -1.6687 C.ar      1 <0>        -0.0946
     15 C11        -2.6581   -6.8182   -0.6135 C.ar      1 <0>        -0.0289
     16 C12        -2.6937   -6.3555    0.7014 C.ar      1 <0>        -0.0976
     17 C13        -2.7957   -5.0022    0.9512 C.ar      1 <0>        -0.1124
     18 C14        -2.5435   -8.2699   -0.8884 C.ar      1 <0>        -0.0138
     19 C15        -3.4969   -8.9111   -1.6743 C.ar      1 <0>        -0.1060
     20 C16        -3.3865  -10.2634   -1.9280 C.ar      1 <0>        -0.0950
     21 C17        -2.3304  -10.9914   -1.4051 C.ar      1 <0>        -0.1142
     22 C18        -1.3757  -10.3740   -0.6241 C.ar      1 <0>        -0.0923
     23 C19        -1.4678   -9.0068   -0.3618 C.ar      1 <0>        -0.1153
     24 C20        -0.4457   -8.3392    0.4683 C.2       1 <0>         0.5682
     25 O1          0.1793   -7.3968    0.0219 O.2       1 <0>        -0.5281
     26 N3         -0.2055   -8.7745    1.7210 N.am      1 <0>        -0.6057
     27 C21        -0.8836   -9.9696    2.2412 C.3       1 <0>         0.0949
     28 C22         0.1730  -10.9469    2.7659 C.3       1 <0>        -0.1321
     29 C23         1.0599  -10.2324    3.7883 C.3       1 <0>        -0.0804
     30 C24         1.7779   -9.0615    3.1133 C.3       1 <0>        -0.1337
     31 C25         0.7440   -8.0664    2.5904 C.3       1 <0>         0.1154
     32 C26         2.0947  -11.2150    4.3402 C.3       1 <0>        -0.0772
     33 C27         2.8877  -10.5475    5.4341 C.ar      1 <0>        -0.0909
     34 C28         4.0431   -9.8542    5.1251 C.ar      1 <0>        -0.0888
     35 C29         4.7709   -9.2413    6.1273 C.ar      1 <0>        -0.1522
     36 C30         4.3424   -9.3218    7.4415 C.ar      1 <0>         0.0944
     37 C31         3.1851  -10.0164    7.7499 C.ar      1 <0>        -0.1504
     38 C32         2.4561  -10.6241    6.7452 C.ar      1 <0>        -0.0874
     39 F1          5.0533   -8.7235    8.4222 F         1 <0>        -0.1393
     40 H3          0.6387    1.9411    0.3989 H         1 <0>         0.0858
     41 H4         -0.8980    1.9028   -0.4986 H         1 <0>         0.1088
     42 H5         -0.9043    1.8371    1.2801 H         1 <0>         0.0806
     43 H6         -2.2559   -0.2549    1.1909 H         1 <0>         0.0611
     44 H7         -2.2401   -0.2122   -0.5889 H         1 <0>         0.1238
     45 H8         -1.4416   -2.2701    2.3420 H         1 <0>         0.0595
     46 H9         -0.8546   -3.6411    1.3697 H         1 <0>         0.1278
     47 H10         1.3403   -0.1079    1.5319 H         1 <0>         0.4291
     48 H11         1.3128   -3.5686    2.6267 H         1 <0>         0.1088
     49 H12         2.2552   -2.0596    2.6841 H         1 <0>         0.0861
     50 H13         0.7209   -2.1853    3.5778 H         1 <0>         0.0802
     51 H14        -3.5120   -2.4790    1.1245 H         1 <0>         0.0550
     52 H15        -3.5479   -2.1506   -0.6245 H         1 <0>         0.0973
     53 H16        -2.8953   -3.8544   -2.2229 H         1 <0>         0.1263
     54 H17        -2.7044   -6.2622   -2.6891 H         1 <0>         0.1276
     55 H18        -2.6378   -7.0546    1.5227 H         1 <0>         0.1186
     56 H19        -2.8189   -4.6423    1.9692 H         1 <0>         0.1172
     57 H20        -4.3234   -8.3505   -2.0853 H         1 <0>         0.1325
     58 H21        -4.1285  -10.7572   -2.5379 H         1 <0>         0.1336
     59 H22        -2.2542  -12.0491   -1.6098 H         1 <0>         0.1341
     60 H23        -0.5554  -10.9478   -0.2190 H         1 <0>         0.1317
     61 H24        -1.5536   -9.6855    3.0526 H         1 <0>         0.0712
     62 H25        -1.4542  -10.4428    1.4421 H         1 <0>         0.0961
     63 H26        -0.3200  -11.7948    3.2415 H         1 <0>         0.0822
     64 H27         0.7858  -11.3000    1.9365 H         1 <0>         0.0706
     65 H28         0.4431   -9.8579    4.6052 H         1 <0>         0.0758
     66 H29         2.4271   -8.5675    3.8361 H         1 <0>         0.0805
     67 H30         2.3755   -9.4324    2.2806 H         1 <0>         0.0690
     68 H31         1.2470   -7.2843    2.0216 H         1 <0>         0.0898
     69 H32         0.2097   -7.6236    3.4309 H         1 <0>         0.0650
     70 H33         1.5857  -12.0906    4.7430 H         1 <0>         0.0788
     71 H34         2.7674  -11.5221    3.5394 H         1 <0>         0.0763
     72 H35         4.3774   -9.7919    4.1000 H         1 <0>         0.1312
     73 H36         5.6737   -8.7001    5.8857 H         1 <0>         0.1348
     74 H37         2.8501  -10.0802    8.7746 H         1 <0>         0.1360
     75 H38         1.5509  -11.1622    6.9850 H         1 <0>         0.1324
     76 H39        -0.0902   -0.2239    2.3407 H         1 <0>         0.4206
@<TRIPOS>BOND
     1    1    2 1
     2    1   40 1
     3    1   41 1
     4    1   42 1
     5    2    3 1
     6    2    9 1
     7    2    4 1
     8    4    5 1
     9    4   43 1
    10    4   44 1
    11    5    6 1
    12    5   11 1
    13    6    7 1
    14    6   45 1
    15    6   46 1
    16    7    8 1
    17    7    9 1
    18    7   10 1
    19    9   47 1
    20    9   76 1
    21   10   48 1
    22   10   49 1
    23   10   50 1
    24   11   12 1
    25   11   51 1
    26   11   52 1
    27   12   17 ar
    28   12   13 ar
    29   13   14 ar
    30   13   53 1
    31   14   15 ar
    32   14   54 1
    33   15   16 ar
    34   15   18 1
    35   16   17 ar
    36   16   55 1
    37   17   56 1
    38   18   23 ar
    39   18   19 ar
    40   19   20 ar
    41   19   57 1
    42   20   21 ar
    43   20   58 1
    44   21   22 ar
    45   21   59 1
    46   22   23 ar
    47   22   60 1
    48   23   24 1
    49   24   25 2
    50   24   26 am
    51   26   31 1
    52   26   27 1
    53   27   28 1
    54   27   61 1
    55   27   62 1
    56   28   29 1
    57   28   63 1
    58   28   64 1
    59   29   30 1
    60   29   32 1
    61   29   65 1
    62   30   31 1
    63   30   66 1
    64   30   67 1
    65   31   68 1
    66   31   69 1
    67   32   33 1
    68   32   70 1
    69   32   71 1
    70   33   38 ar
    71   33   34 ar
    72   34   35 ar
    73   34   72 1
    74   35   36 ar
    75   35   73 1
    76   36   37 ar
    77   36   39 1
    78   37   38 ar
    79   37   74 1
    80   38   75 1
@<TRIPOS>MOLECULE
CHEMBL364572
   56    60     0     0     0
SMALL
USER_CHARGES

@<TRIPOS>ATOM
      1 C1         -1.0954    1.8084   -0.1333 C.3       1 <0>        -0.1456
      2 C2         -0.8624    0.2969   -0.0864 C.3       1 <0>        -0.5754
      3 C3         -0.1261   -0.0657    1.2048 C.3       1 <0>        -0.1482
      4 S1         -2.4591   -0.5628   -0.1338 S.o2      1 <0>         2.5788
      5 O1         -3.2295   -0.2279    1.0123 O.2       1 <0>        -0.9267
      6 O2         -3.0225   -0.4774   -1.4356 O.2       1 <0>        -0.9167
      7 N1         -2.0860   -2.1644    0.0609 N.pl3     1 <0>        -0.8545
      8 C4         -1.8018   -3.0711   -0.9480 C.ar      1 <0>         0.0324
      9 C5         -1.7334   -2.9800   -2.3268 C.ar      1 <0>        -0.0805
     10 C6         -1.4116   -4.1114   -3.0767 C.ar      1 <0>        -0.0201
     11 C7         -1.1597   -5.3312   -2.4349 C.ar      1 <0>        -0.0681
     12 C8         -1.2267   -5.4245   -1.0764 C.ar      1 <0>        -0.0778
     13 C9         -1.5477   -4.2985   -0.3106 C.ar      1 <0>         0.1189
     14 N2         -1.6850   -4.0903    1.0247 N.2       1 <0>        -0.5226
     15 C10        -1.9951   -2.8369    1.2460 C.2       1 <0>         0.5758
     16 N3         -2.2031   -2.2804    2.4903 N.pl3     1 <0>        -0.8195
     17 C11        -1.3369   -4.0237   -4.5474 C.2       1 <0>         0.0529
     18 C12        -1.9134   -4.8908   -5.4606 C.2       1 <0>         0.0717
     19 N4         -1.6046   -4.4530   -6.6925 N.2       1 <0>        -0.4366
     20 C13        -0.8713   -3.3669   -6.6024 C.2       1 <0>         0.2434
     21 N5         -0.6853   -3.0605   -5.2840 N.pl3     1 <0>        -0.5500
     22 H1         -0.1860   -2.3066   -4.9328 H         1 <0>         0.4250
     23 C14        -0.3376   -2.5965   -7.7443 C.ar      1 <0>        -0.0834
     24 C15         0.4388   -1.4557   -7.5208 C.ar      1 <0>         0.1307
     25 C16         0.9348   -0.7407   -8.5945 C.ar      1 <0>        -0.1573
     26 C17         0.6648   -1.1511   -9.8875 C.ar      1 <0>        -0.0514
     27 C18        -0.1027   -2.2788  -10.1170 C.ar      1 <0>        -0.1604
     28 C19        -0.6016   -3.0078   -9.0540 C.ar      1 <0>         0.1709
     29 F1         -1.3467   -4.1118   -9.2802 F         1 <0>        -0.1016
     30 F2          0.7033   -1.0530   -6.2586 F         1 <0>        -0.1323
     31 C20        -2.7250   -6.0870   -5.1369 C.ar      1 <0>        -0.0073
     32 C21        -3.6785   -6.0321   -4.1205 C.ar      1 <0>        -0.0966
     33 C22        -4.4313   -7.1497   -3.8235 C.ar      1 <0>        -0.1188
     34 C23        -4.2418   -8.3230   -4.5317 C.ar      1 <0>        -0.1142
     35 C24        -3.2975   -8.3837   -5.5410 C.ar      1 <0>        -0.1214
     36 C25        -2.5426   -7.2711   -5.8511 C.ar      1 <0>        -0.0895
     37 H2         -0.1361    2.3249   -0.1048 H         1 <0>         0.0948
     38 H3         -1.6200    2.0668   -1.0532 H         1 <0>         0.0760
     39 H4         -1.6962    2.1102    0.7246 H         1 <0>         0.0796
     40 H5         -0.2617   -0.0049   -0.9444 H         1 <0>         0.1455
     41 H6         -0.7269    0.2361    2.0627 H         1 <0>         0.0784
     42 H7          0.0399   -1.1425    1.2382 H         1 <0>         0.0699
     43 H8          0.8333    0.4508    1.2332 H         1 <0>         0.0931
     44 H9         -1.9283   -2.0389   -2.8195 H         1 <0>         0.1367
     45 H10        -0.9110   -6.2038   -3.0205 H         1 <0>         0.1396
     46 H11        -1.0316   -6.3692   -0.5906 H         1 <0>         0.1419
     47 H12        -2.4333   -1.3415    2.5693 H         1 <0>         0.4215
     48 H13        -2.1190   -2.8279    3.2866 H         1 <0>         0.4320
     49 H14         1.5345    0.1411   -8.4235 H         1 <0>         0.1494
     50 H15         1.0549   -0.5879  -10.7224 H         1 <0>         0.1504
     51 H16        -0.3091   -2.5929  -11.1295 H         1 <0>         0.1520
     52 H17        -3.8271   -5.1168   -3.5667 H         1 <0>         0.1209
     53 H18        -5.1697   -7.1085   -3.0365 H         1 <0>         0.1232
     54 H19        -4.8332   -9.1952   -4.2954 H         1 <0>         0.1218
     55 H20        -3.1539   -9.3025   -6.0901 H         1 <0>         0.1239
     56 H21        -1.8091   -7.3182   -6.6424 H         1 <0>         0.1254
@<TRIPOS>BOND
     1    1    2 1
     2    1   37 1
     3    1   38 1
     4    1   39 1
     5    2    3 1
     6    2    4 1
     7    2   40 1
     8    3   41 1
     9    3   42 1
    10    3   43 1
    11    4    5 2
    12    4    6 2
    13    4    7 1
    14    7   15 1
    15    7    8 1
    16    8   13 ar
    17    8    9 ar
    18    9   10 ar
    19    9   44 1
    20   10   11 ar
    21   10   17 1
    22   11   12 ar
    23   11   45 1
    24   12   13 ar
    25   12   46 1
    26   13   14 1
    27   14   15 2
    28   15   16 1
    29   16   47 1
    30   16   48 1
    31   17   21 1
    32   17   18 2
    33   18   19 1
    34   18   31 1
    35   19   20 2
    36   20   21 1
    37   20   23 1
    38   21   22 1
    39   23   28 ar
    40   23   24 ar
    41   24   25 ar
    42   24   30 1
    43   25   26 ar
    44   25   49 1
    45   26   27 ar
    46   26   50 1
    47   27   28 ar
    48   27   51 1
    49   28   29 1
    50   31   36 ar
    51   31   32 ar
    52   32   33 ar
    53   32   52 1
    54   33   34 ar
    55   33   53 1
    56   34   35 ar
    57   34   54 1
    58   35   36 ar
    59   35   55 1
    60   36   56 1
@<TRIPOS>MOLECULE
CHEMBL364572
   57    61     0     0     0
SMALL
USER_CHARGES

@<TRIPOS>ATOM
      1 C1         -1.0609    1.8033   -0.1293 C.3       1 <0>        -0.1482
      2 C2         -0.8354    0.2907   -0.0837 C.3       1 <0>        -0.5696
      3 C3         -0.0996   -0.0767    1.2064 C.3       1 <0>        -0.1515
      4 S1         -2.4364   -0.5610   -0.1302 S.o2      1 <0>         2.5734
      5 O1         -3.2039   -0.2231    1.0170 O.2       1 <0>        -0.9184
      6 O2         -3.0007   -0.4718   -1.4313 O.2       1 <0>        -0.9190
      7 N1         -2.0712   -2.1646    0.0631 N.pl3     1 <0>        -0.8566
      8 C4         -1.7925   -3.0720   -0.9468 C.ar      1 <0>         0.0257
      9 C5         -1.7251   -2.9802   -2.3257 C.ar      1 <0>        -0.0529
     10 C6         -1.4097   -4.1127   -3.0767 C.ar      1 <0>        -0.0797
     11 C7         -1.1633   -5.3342   -2.4360 C.ar      1 <0>        -0.0547
     12 C8         -1.2294   -5.4282   -1.0775 C.ar      1 <0>        -0.0785
     13 C9         -1.5440   -4.3011   -0.3106 C.ar      1 <0>         0.1522
     14 N2         -1.6788   -4.0932    1.0250 N.2       1 <0>        -0.5255
     15 C10        -1.9825   -2.8384    1.2475 C.2       1 <0>         0.5957
     16 N3         -2.1863   -2.2818    2.4924 N.pl3     1 <0>        -0.8097
     17 C11        -1.3360   -4.0243   -4.5474 C.2       1 <0>         0.1454
     18 C12        -1.9134   -4.8908   -5.4606 C.2       1 <0>         0.1054
     19 N4         -1.6054   -4.4525   -6.6925 N.pl3     1 <0>        -0.4536
     20 C13        -0.8718   -3.3665   -6.6024 C.cat     1 <0>         0.3646
     21 N5         -0.6848   -3.0608   -5.2840 N.pl3     1 <0>        -0.4960
     22 H1         -0.1851   -2.3072   -4.9328 H         1 <0>         0.4632
     23 C14        -0.3388   -2.5957   -7.7443 C.ar      1 <0>        -0.1623
     24 C15        -0.2292   -1.2044   -7.6630 C.ar      1 <0>         0.1720
     25 C16         0.2709   -0.4905   -8.7355 C.ar      1 <0>        -0.1473
     26 C17         0.6624   -1.1490   -9.8872 C.ar      1 <0>        -0.0106
     27 C18         0.5571   -2.5254   -9.9755 C.ar      1 <0>        -0.1464
     28 C19         0.0640   -3.2542   -8.9098 C.ar      1 <0>         0.1706
     29 F1         -0.0333   -4.5990   -8.9960 F         1 <0>        -0.1175
     30 F2         -0.6115   -0.5595   -6.5391 F         1 <0>        -0.1171
     31 C20        -2.7250   -6.0870   -5.1369 C.ar      1 <0>        -0.0722
     32 C21        -3.7489   -6.0041   -4.1935 C.ar      1 <0>        -0.0696
     33 C22        -4.5013   -7.1218   -3.8962 C.ar      1 <0>        -0.1109
     34 C23        -4.2418   -8.3230   -4.5317 C.ar      1 <0>        -0.0813
     35 C24        -3.2275   -8.4115   -5.4684 C.ar      1 <0>        -0.1124
     36 C25        -2.4719   -7.2994   -5.7784 C.ar      1 <0>        -0.0917
     37 H2         -0.0989    2.3150   -0.1014 H         1 <0>         0.0981
     38 H3         -1.5851    2.0650   -1.0484 H         1 <0>         0.0766
     39 H4         -1.6592    2.1075    0.7295 H         1 <0>         0.0824
     40 H5         -0.2370   -0.0135   -0.9425 H         1 <0>         0.1443
     41 H6          0.0610   -1.1543    1.2389 H         1 <0>         0.0686
     42 H7          0.8624    0.4351    1.2343 H         1 <0>         0.0971
     43 H8         -0.6980    0.2275    2.0652 H         1 <0>         0.0811
     44 H9         -1.9157   -2.0378   -2.8175 H         1 <0>         0.1425
     45 H10        -0.9196   -6.2076   -3.0226 H         1 <0>         0.1433
     46 H11        -1.0385   -6.3741   -0.5926 H         1 <0>         0.1507
     47 H12        -2.4118   -1.3418    2.5723 H         1 <0>         0.4256
     48 H13        -2.1043   -2.8303    3.2882 H         1 <0>         0.4372
     49 H14         0.3558    0.5844   -8.6744 H         1 <0>         0.1672
     50 H15         1.0521   -0.5855  -10.7220 H         1 <0>         0.1675
     51 H16         0.8649   -3.0323  -10.8782 H         1 <0>         0.1678
     52 H17        -3.9522   -5.0670   -3.6965 H         1 <0>         0.1325
     53 H18        -5.2943   -7.0590   -3.1656 H         1 <0>         0.1379
     54 H19        -4.8332   -9.1952   -4.2954 H         1 <0>         0.1364
     55 H20        -3.0294   -9.3520   -5.9609 H         1 <0>         0.1375
     56 H21        -1.6835   -7.3685   -6.5133 H         1 <0>         0.1271
     57 H22        -1.8818   -4.8736   -7.5215 H         1 <0>         0.4632
@<TRIPOS>BOND
     1    1    2 1
     2    1   37 1
     3    1   38 1
     4    1   39 1
     5    2    3 1
     6    2    4 1
     7    2   40 1
     8    3   41 1
     9    3   42 1
    10    3   43 1
    11    4    5 2
    12    4    6 2
    13    4    7 1
    14    7   15 1
    15    7    8 1
    16    8   13 ar
    17    8    9 ar
    18    9   10 ar
    19    9   44 1
    20   10   11 ar
    21   10   17 1
    22   11   12 ar
    23   11   45 1
    24   12   13 ar
    25   12   46 1
    26   13   14 1
    27   14   15 2
    28   15   16 1
    29   16   47 1
    30   16   48 1
    31   17   21 1
    32   17   18 2
    33   18   19 1
    34   18   31 1
    35   19   20 2
    36   19   57 1
    37   20   21 1
    38   20   23 1
    39   21   22 1
    40   23   28 ar
    41   23   24 ar
    42   24   25 ar
    43   24   30 1
    44   25   26 ar
    45   25   49 1
    46   26   27 ar
    47   26   50 1
    48   27   28 ar
    49   27   51 1
    50   28   29 1
    51   31   36 ar
    52   31   32 ar
    53   32   33 ar
    54   32   52 1
    55   33   34 ar
    56   33   53 1
    57   34   35 ar
    58   34   54 1
    59   35   36 ar
    60   35   55 1
    61   36   56 1
@<TRIPOS>MOLECULE
CHEMBL364572
   56    60     0     0     0
SMALL
USER_CHARGES

@<TRIPOS>ATOM
      1 C1         -0.0187    1.5258    0.0104 C.3       1 <0>        -0.1449
      2 C2          0.0021   -0.0041    0.0020 C.3       1 <0>        -0.5770
      3 C3          0.7421   -0.5109    1.2415 C.3       1 <0>        -0.1473
      4 S1         -1.6997   -0.6320    0.0149 S.o2      1 <0>         2.5787
      5 O1         -2.3591   -0.2345    1.2093 O.2       1 <0>        -0.9300
      6 O2         -2.3081   -0.4232   -1.2522 O.2       1 <0>        -0.9105
      7 N1         -1.5459   -2.2757    0.1441 N.pl3     1 <0>        -0.8535
      8 C4         -1.4409   -3.1765   -0.9037 C.ar      1 <0>         0.0311
      9 C5         -1.4281   -3.0472   -2.2819 C.ar      1 <0>        -0.0633
     10 C6         -1.3054   -4.1829   -3.0782 C.ar      1 <0>        -0.0026
     11 C7         -1.1958   -5.4461   -2.4877 C.ar      1 <0>        -0.0828
     12 C8         -1.2078   -5.5793   -1.1302 C.ar      1 <0>        -0.0821
     13 C9         -1.3304   -4.4487   -0.3162 C.ar      1 <0>         0.1108
     14 N2         -1.3719   -4.2713    1.0303 N.2       1 <0>        -0.5239
     15 C10        -1.4929   -2.9959    1.3032 C.2       1 <0>         0.5717
     16 N3         -1.5601   -2.4604    2.5721 N.pl3     1 <0>        -0.8218
     17 C11        -1.2913   -4.0530   -4.5537 C.2       1 <0>         0.0713
     18 C12        -0.5611   -4.8325   -5.4349 C.2       1 <0>         0.0509
     19 N4         -0.8497   -4.3651   -6.6981 N.pl3     1 <0>        -0.5489
     20 C13        -1.7314   -3.3330   -6.5538 C.2       1 <0>         0.2442
     21 N5         -1.9890   -3.1618   -5.2768 N.2       1 <0>        -0.4359
     22 H1         -0.4931   -4.7054   -7.5336 H         1 <0>         0.4261
     23 C14        -2.3085   -2.5389   -7.6579 C.ar      1 <0>        -0.0850
     24 C15        -1.9654   -2.8242   -8.9826 C.ar      1 <0>         0.1313
     25 C16        -2.5095   -2.0767  -10.0099 C.ar      1 <0>        -0.1578
     26 C17        -3.3912   -1.0483   -9.7298 C.ar      1 <0>        -0.0509
     27 C18        -3.7354   -0.7594   -8.4216 C.ar      1 <0>        -0.1612
     28 C19        -3.2050   -1.5020   -7.3836 C.ar      1 <0>         0.1711
     29 F1         -3.5471   -1.2223   -6.1069 F         1 <0>        -0.0996
     30 F2         -1.1037   -3.8277   -9.2581 F         1 <0>        -0.1317
     31 C20         0.3466   -5.9433   -5.0892 C.ar      1 <0>        -0.0270
     32 C21         1.2568   -5.8049   -4.0383 C.ar      1 <0>        -0.0847
     33 C22         2.1019   -6.8475   -3.7206 C.ar      1 <0>        -0.1143
     34 C23         2.0497   -8.0286   -4.4398 C.ar      1 <0>        -0.1085
     35 C24         1.1511   -8.1727   -5.4823 C.ar      1 <0>        -0.1163
     36 C25         0.2960   -7.1406   -5.8076 C.ar      1 <0>        -0.1073
     37 H2          1.0039    1.9031    0.0027 H         1 <0>         0.0933
     38 H3         -0.5459    1.8868   -0.8726 H         1 <0>         0.0763
     39 H4         -0.5289    1.8773    0.9072 H         1 <0>         0.0785
     40 H5          0.5123   -0.3556   -0.8948 H         1 <0>         0.1465
     41 H6          0.2319   -0.1594    2.1383 H         1 <0>         0.0772
     42 H7          0.7568   -1.6008    1.2356 H         1 <0>         0.0699
     43 H8          1.7647   -0.1336    1.2338 H         1 <0>         0.0915
     44 H9         -1.5132   -2.0714   -2.7368 H         1 <0>         0.1438
     45 H10        -1.1012   -6.3228   -3.1113 H         1 <0>         0.1344
     46 H11        -1.1230   -6.5589   -0.6835 H         1 <0>         0.1372
     47 H12        -1.6523   -1.5020    2.6898 H         1 <0>         0.4208
     48 H13        -1.5152   -3.0421    3.3471 H         1 <0>         0.4305
     49 H14        -2.2454   -2.2958  -11.0339 H         1 <0>         0.1497
     50 H15        -3.8128   -0.4675  -10.5369 H         1 <0>         0.1503
     51 H16        -4.4239    0.0456   -8.2111 H         1 <0>         0.1519
     52 H17         1.2988   -4.8836   -3.4764 H         1 <0>         0.1283
     53 H18         2.8062   -6.7418   -2.9087 H         1 <0>         0.1287
     54 H19         2.7139   -8.8418   -4.1866 H         1 <0>         0.1258
     55 H20         1.1161   -9.0972   -6.0395 H         1 <0>         0.1267
     56 H21        -0.4079   -7.2560   -6.6185 H         1 <0>         0.1203
@<TRIPOS>BOND
     1    1    2 1
     2    1   37 1
     3    1   38 1
     4    1   39 1
     5    2    3 1
     6    2    4 1
     7    2   40 1
     8    3   41 1
     9    3   42 1
    10    3   43 1
    11    4    5 2
    12    4    6 2
    13    4    7 1
    14    7   15 1
    15    7    8 1
    16    8   13 ar
    17    8    9 ar
    18    9   10 ar
    19    9   44 1
    20   10   11 ar
    21   10   17 1
    22   11   12 ar
    23   11   45 1
    24   12   13 ar
    25   12   46 1
    26   13   14 1
    27   14   15 2
    28   15   16 1
    29   16   47 1
    30   16   48 1
    31   17   21 1
    32   17   18 2
    33   18   31 1
    34   18   19 1
    35   19   20 1
    36   19   22 1
    37   20   23 1
    38   20   21 2
    39   23   28 ar
    40   23   24 ar
    41   24   25 ar
    42   24   30 1
    43   25   26 ar
    44   25   49 1
    45   26   27 ar
    46   26   50 1
    47   27   28 ar
    48   27   51 1
    49   28   29 1
    50   31   36 ar
    51   31   32 ar
    52   32   33 ar
    53   32   52 1
    54   33   34 ar
    55   33   53 1
    56   34   35 ar
    57   34   54 1
    58   35   36 ar
    59   35   55 1
    60   36   56 1
@<TRIPOS>MOLECULE
CHEMBL401930
   60    64     0     0     0
SMALL
USER_CHARGES

@<TRIPOS>ATOM
      1 C1          0.1861    0.9402    0.2320 C.3       1 <0>        -0.1099
      2 C2          0.1885   -0.5661    0.2760 C.ar      1 <0>         0.0105
      3 C3          0.2130   -1.2834   -0.8862 C.ar      1 <0>        -0.1934
      4 C4          0.2155   -2.6762   -0.8597 C.ar      1 <0>         0.2379
      5 C5          0.1931   -3.3524    0.3500 C.ar      1 <0>        -0.2114
      6 C6          0.1681   -2.6355    1.5366 C.ar      1 <0>         0.1009
      7 C7          0.1715   -1.2297    1.5066 C.ar      1 <0>         0.0140
      8 N1          0.1514   -0.8003    2.7941 N.2       1 <0>        -0.5153
      9 C8          0.1414   -1.8338    3.6037 C.2       1 <0>         0.3723
     10 N2          0.1421   -2.9944    2.8723 N.pl3     1 <0>        -0.5878
     11 H1          0.1365   -3.8977    3.2257 H         1 <0>         0.4313
     12 C9          0.1201   -1.7586    5.0739 C.2       1 <0>        -0.2944
     13 C10        -0.0136   -0.5236    5.7239 C.2       1 <0>         0.3534
     14 C11        -0.0298   -0.4970    7.1313 C.2       1 <0>        -0.2716
     15 C12         0.0823   -1.6480    7.8290 C.2       1 <0>         0.1820
     16 N3          0.2123   -2.8452    7.1992 N.am      1 <0>        -0.6203
     17 H2          0.2910   -3.6547    7.7279 H         1 <0>         0.4189
     18 C13         0.2280   -2.9303    5.8560 C.2       1 <0>         0.5553
     19 O1          0.3405   -4.0175    5.3144 O.2       1 <0>        -0.5664
     20 N4         -0.1266    0.6435    4.9980 N.pl3     1 <0>        -0.6861
     21 C14        -0.1433    1.9361    5.6873 C.3       1 <0>         0.0780
     22 C15        -0.2761    3.0609    4.6587 C.3       1 <0>         0.1422
     23 H3          0.5199    2.9729    3.9193 H         1 <0>         0.1199
     24 C16        -0.1701    4.3933    5.3548 C.ar      1 <0>        -0.1060
     25 C17        -1.2638    4.9136    6.0217 C.ar      1 <0>        -0.1059
     26 C18        -1.1674    6.1356    6.6604 C.ar      1 <0>        -0.1011
     27 C19         0.0226    6.8384    6.6324 C.ar      1 <0>        -0.1059
     28 C20         1.1172    6.3184    5.9653 C.ar      1 <0>        -0.0315
     29 C21         1.0218    5.0921    5.3312 C.ar      1 <0>        -0.0968
     30 Cl1         2.6119    7.2005    5.9296 Cl        1 <0>        -0.0631
     31 O2         -1.5442    2.9634    4.0072 O.3       1 <0>        -0.5411
     32 N5          0.2402   -3.3953   -2.0590 N.pl3     1 <0>        -0.6312
     33 C22         0.3654   -4.8615   -2.0606 C.3       1 <0>         0.0865
     34 C23        -0.7404   -5.4402   -2.9506 C.3       1 <0>         0.0458
     35 O3         -0.7012   -4.7983   -4.2274 O.3       1 <0>        -0.3797
     36 C24        -0.9535   -3.3918   -4.1834 C.3       1 <0>         0.0453
     37 C25         0.1357   -2.7087   -3.3563 C.3       1 <0>         0.0882
     38 H4          1.2131    1.3055    0.2367 H         1 <0>         0.0703
     39 H5         -0.3149    1.2764   -0.6758 H         1 <0>         0.0645
     40 H6         -0.3416    1.3283    1.1032 H         1 <0>         0.0739
     41 H7          0.2303   -0.7662   -1.8342 H         1 <0>         0.1282
     42 H8          0.1946   -4.4322    0.3682 H         1 <0>         0.1205
     43 H9         -0.1314    0.4433    7.6528 H         1 <0>         0.1523
     44 H10         0.0686   -1.6162    8.9085 H         1 <0>         0.1725
     45 H11        -0.1949    0.6085    4.0311 H         1 <0>         0.4342
     46 H12        -0.9888    1.9705    6.3745 H         1 <0>         0.0761
     47 H13         0.7842    2.0621    6.2458 H         1 <0>         0.0833
     48 H14        -2.1940    4.3651    6.0433 H         1 <0>         0.1287
     49 H15        -2.0220    6.5415    7.1812 H         1 <0>         0.1361
     50 H16         0.0976    7.7936    7.1308 H         1 <0>         0.1361
     51 H17         1.8773    4.6836    4.8140 H         1 <0>         0.1367
     52 H18        -2.3004    3.0335    4.6059 H         1 <0>         0.3756
     53 H19         1.3408   -5.1463   -2.4550 H         1 <0>         0.0707
     54 H20         0.2549   -5.2405   -1.0446 H         1 <0>         0.0921
     55 H21        -0.5831   -6.5114   -3.0767 H         1 <0>         0.1043
     56 H22        -1.7107   -5.2663   -2.4854 H         1 <0>         0.0557
     57 H23        -0.9495   -2.9893   -5.1964 H         1 <0>         0.1053
     58 H24        -1.9246   -3.2104   -3.7226 H         1 <0>         0.0555
     59 H25        -0.1269   -1.6627   -3.1979 H         1 <0>         0.0936
     60 H26         1.0876   -2.7730   -3.8834 H         1 <0>         0.0702
@<TRIPOS>BOND
     1    1    2 1
     2    1   38 1
     3    1   39 1
     4    1   40 1
     5    2    7 ar
     6    2    3 ar
     7    3    4 ar
     8    3   41 1
     9    4    5 ar
    10    4   32 1
    11    5    6 ar
    12    5   42 1
    13    6   10 1
    14    6    7 ar
    15    7    8 1
    16    8    9 2
    17    9   10 1
    18    9   12 1
    19   10   11 1
    20   12   18 1
    21   12   13 2
    22   13   14 1
    23   13   20 1
    24   14   15 2
    25   14   43 1
    26   15   16 1
    27   15   44 1
    28   16   17 1
    29   16   18 am
    30   18   19 2
    31   20   21 1
    32   20   45 1
    33   21   22 1
    34   21   46 1
    35   21   47 1
    36   22   23 1
    37   22   24 1
    38   22   31 1
    39   24   29 ar
    40   24   25 ar
    41   25   26 ar
    42   25   48 1
    43   26   27 ar
    44   26   49 1
    45   27   28 ar
    46   27   50 1
    47   28   29 ar
    48   28   30 1
    49   29   51 1
    50   31   52 1
    51   32   37 1
    52   32   33 1
    53   33   34 1
    54   33   53 1
    55   33   54 1
    56   34   35 1
    57   34   55 1
    58   34   56 1
    59   35   36 1
    60   36   37 1
    61   36   57 1
    62   36   58 1
    63   37   59 1
    64   37   60 1
@<TRIPOS>MOLECULE
CHEMBL434936
   61    64     0     0     0
SMALL
USER_CHARGES

@<TRIPOS>ATOM
      1 C1         -0.6836    1.8045    1.5966 C.3       1 <0>         0.0235
      2 O1         -0.5860    0.3955    1.3791 O.3       1 <0>        -0.3087
      3 C2         -0.0069   -0.3424    2.3634 C.ar      1 <0>         0.0999
      4 C3          0.4519    0.2779    3.5168 C.ar      1 <0>        -0.1686
      5 C4          1.0410   -0.4681    4.5208 C.ar      1 <0>        -0.0826
      6 C5          1.1766   -1.8349    4.3825 C.ar      1 <0>        -0.0994
      7 C6          0.7189   -2.4673    3.2277 C.ar      1 <0>        -0.0288
      8 C7          0.1199   -1.7155    2.2172 C.ar      1 <0>         0.0846
      9 F1         -0.3307   -2.3223    1.0974 F         1 <0>        -0.1284
     10 C8          0.8633   -3.9355    3.0765 C.2       1 <0>        -0.2028
     11 C9         -0.2132   -4.7610    3.2101 C.2       1 <0>         0.1893
     12 N1         -0.0487   -6.1092    3.0647 N.am      1 <0>        -0.5201
     13 C10         1.1539   -6.6413    2.7923 C.2       1 <0>         0.6799
     14 O2          1.2528   -7.8470    2.6710 O.2       1 <0>        -0.5311
     15 N2          2.2514   -5.8778    2.6495 N.am      1 <0>        -0.5726
     16 C11         2.1689   -4.5364    2.7730 C.2       1 <0>         0.5514
     17 O3          3.1575   -3.8387    2.6399 O.2       1 <0>        -0.4686
     18 C12         3.5419   -6.5045    2.3524 C.3       1 <0>         0.0923
     19 C13         3.7241   -6.6030    0.8365 C.3       1 <0>         0.0734
     20 H1          3.7857   -5.6009    0.4121 H         1 <0>         0.1551
     21 C14         4.9927   -7.3569    0.5310 C.ar      1 <0>        -0.1483
     22 C15         5.0052   -8.7382    0.5821 C.ar      1 <0>        -0.1164
     23 C16         6.1689   -9.4297    0.3019 C.ar      1 <0>        -0.1039
     24 C17         7.3200   -8.7398   -0.0300 C.ar      1 <0>        -0.0848
     25 C18         7.3072   -7.3585   -0.0821 C.ar      1 <0>        -0.1055
     26 C19         6.1424   -6.6672    0.1940 C.ar      1 <0>        -0.0795
     27 N3          2.5793   -7.3133    0.2509 N.4       1 <0>        -0.6342
     28 C20        -1.2080   -6.9931    3.2095 C.3       1 <0>         0.1357
     29 C21        -1.8270   -7.2353    1.8570 C.ar      1 <0>        -0.1174
     30 C22        -1.9698   -8.5259    1.3832 C.ar      1 <0>        -0.1351
     31 C23        -2.5375   -8.7483    0.1427 C.ar      1 <0>        -0.0808
     32 C24        -2.9632   -7.6805   -0.6255 C.ar      1 <0>        -0.0741
     33 C25        -2.8219   -6.3895   -0.1537 C.ar      1 <0>        -0.1174
     34 C26        -2.2581   -6.1656    1.0912 C.ar      1 <0>         0.1131
     35 F2         -2.1237   -4.9041    1.5555 F         1 <0>        -0.1209
     36 C27        -1.5058   -9.6908    2.2191 C.3       1 <0>         0.5018
     37 F3         -1.8779  -10.8879    1.5980 F         1 <0>        -0.1690
     38 F4         -0.1136   -9.6461    2.3493 F         1 <0>        -0.1547
     39 F5         -2.0953   -9.6198    3.4858 F         1 <0>        -0.1705
     40 H2          0.3147    2.2221    1.7269 H         1 <0>         0.0612
     41 H3         -1.1639    2.2724    0.7372 H         1 <0>         0.1080
     42 H4         -1.2763    1.9937    2.4916 H         1 <0>         0.0617
     43 H5          0.3489    1.3470    3.6304 H         1 <0>         0.1441
     44 H6          1.3966    0.0202    5.4161 H         1 <0>         0.1407
     45 H7          1.6377   -2.4141    5.1689 H         1 <0>         0.1354
     46 H8         -1.1885   -4.3523    3.4294 H         1 <0>         0.1912
     47 H9          4.3448   -5.9016    2.7765 H         1 <0>         0.1490
     48 H10         3.5692   -7.5036    2.7873 H         1 <0>         0.1320
     49 H11         4.1060   -9.2772    0.8415 H         1 <0>         0.1231
     50 H12         6.1789  -10.5089    0.3426 H         1 <0>         0.1378
     51 H13         8.2293   -9.2801   -0.2483 H         1 <0>         0.1378
     52 H14         8.2065   -6.8196   -0.3411 H         1 <0>         0.1394
     53 H15         6.1314   -5.5882    0.1497 H         1 <0>         0.1370
     54 H16         1.7299   -6.8086    0.4554 H         1 <0>         0.4240
     55 H17         2.6994   -7.3782   -0.7489 H         1 <0>         0.4395
     56 H18        -0.8893   -7.9430    3.6386 H         1 <0>         0.1279
     57 H19        -1.9415   -6.5255    3.8663 H         1 <0>         0.1313
     58 H20        -2.6484   -9.7571   -0.2269 H         1 <0>         0.1543
     59 H21        -3.4060   -7.8555   -1.5949 H         1 <0>         0.1551
     60 H22        -3.1543   -5.5555   -0.7541 H         1 <0>         0.1550
     61 H23         2.5222   -8.2409    0.6437 H         1 <0>         0.4388
@<TRIPOS>BOND
     1    1    2 1
     2    1   40 1
     3    1   41 1
     4    1   42 1
     5    2    3 1
     6    3    8 ar
     7    3    4 ar
     8    4    5 ar
     9    4   43 1
    10    5    6 ar
    11    5   44 1
    12    6    7 ar
    13    6   45 1
    14    7    8 ar
    15    7   10 1
    16    8    9 1
    17   10   16 1
    18   10   11 2
    19   11   12 1
    20   11   46 1
    21   12   13 am
    22   12   28 1
    23   13   14 2
    24   13   15 am
    25   15   16 am
    26   15   18 1
    27   16   17 2
    28   18   19 1
    29   18   47 1
    30   18   48 1
    31   19   20 1
    32   19   21 1
    33   19   27 1
    34   21   26 ar
    35   21   22 ar
    36   22   23 ar
    37   22   49 1
    38   23   24 ar
    39   23   50 1
    40   24   25 ar
    41   24   51 1
    42   25   26 ar
    43   25   52 1
    44   26   53 1
    45   27   54 1
    46   27   55 1
    47   27   61 1
    48   28   29 1
    49   28   56 1
    50   28   57 1
    51   29   34 ar
    52   29   30 ar
    53   30   31 ar
    54   30   36 1
    55   31   32 ar
    56   31   58 1
    57   32   33 ar
    58   32   59 1
    59   33   34 ar
    60   33   60 1
    61   34   35 1
    62   36   37 1
    63   36   38 1
    64   36   39 1
@<TRIPOS>MOLECULE
CHEMBL1079896
   71    74     0     0     0
SMALL
USER_CHARGES

@<TRIPOS>ATOM
      1 C1         -0.0167    1.3781    0.0096 C.ar      1 <0>        -0.1075
      2 C2          1.1709    2.0855    0.0021 C.ar      1 <0>        -0.1141
      3 C3          2.3773    1.4107   -0.0130 C.ar      1 <0>        -0.1102
      4 C4          2.3960    0.0285   -0.0201 C.ar      1 <0>        -0.0854
      5 C5          1.2084   -0.6789   -0.0117 C.ar      1 <0>        -0.1015
      6 C6          0.0021   -0.0041    0.0020 C.ar      1 <0>        -0.1097
      7 C7          3.7112   -0.7071   -0.0376 C.3       1 <0>        -0.0894
      8 C8          4.1714   -0.9633    1.3989 C.3       1 <0>         0.1426
      9 H1          3.3868   -1.4885    1.9436 H         1 <0>         0.1227
     10 C9          5.4407   -1.8174    1.3832 C.3       1 <0>        -0.0183
     11 N1          5.9497   -1.9633    2.7534 N.4       1 <0>        -0.5135
     12 C10         7.1684   -2.7833    2.7383 C.3       1 <0>        -0.0184
     13 C11         7.6986   -2.9353    4.1655 C.3       1 <0>         0.1427
     14 H2          6.9801   -3.4975    4.7620 H         1 <0>         0.1232
     15 C12         9.0333   -3.6827    4.1368 C.3       1 <0>        -0.0895
     16 C13         9.4951   -3.9405    5.5479 C.ar      1 <0>        -0.0858
     17 C14        10.2871   -3.0115    6.1966 C.ar      1 <0>        -0.1111
     18 C15        10.7107   -3.2480    7.4910 C.ar      1 <0>        -0.1149
     19 C16        10.3419   -4.4132    8.1369 C.ar      1 <0>        -0.1074
     20 C17         9.5492   -5.3417    7.4886 C.ar      1 <0>        -0.1096
     21 C18         9.1221   -5.1033    6.1957 C.ar      1 <0>        -0.1011
     22 N2          7.8938   -1.6096    4.7576 N.am      1 <0>        -0.7304
     23 C19         7.8600   -1.4580    6.0964 C.2       1 <0>         0.6525
     24 O1          7.6675   -2.4208    6.8122 O.2       1 <0>        -0.5236
     25 O2          8.0394   -0.2396    6.6406 O.3       1 <0>        -0.3570
     26 C20         7.9909   -0.1524    8.0662 C.3       1 <0>         0.1873
     27 C21         8.2110    1.2771    8.4897 C.2       1 <0>         0.0142
     28 N3          7.3180    2.2162    8.6791 N.2       1 <0>        -0.4879
     29 C22         7.6684    3.4306    9.0529 C.2       1 <0>         0.0286
     30 C23         8.9945    3.6608    9.2315 C.2       1 <0>        -0.2076
     31 S1          9.6633    2.0518    8.8410 S.3       1 <0>         0.1486
     32 N4          4.4511    0.3151    2.0574 N.am      1 <0>        -0.7314
     33 C24         3.4510    1.0070    2.6383 C.2       1 <0>         0.6500
     34 O3          2.3172    0.5705    2.6158 O.2       1 <0>        -0.5257
     35 O4          3.7080    2.1819    3.2434 O.3       1 <0>        -0.3587
     36 C25         2.6005    2.8613    3.8383 C.3       1 <0>         0.1880
     37 C26         3.0768    4.1475    4.4628 C.2       1 <0>        -0.2379
     38 C27         3.1702    5.3903    3.9242 C.2       1 <0>         0.0760
     39 N5          3.6268    6.3476    4.7068 N.2       1 <0>        -0.5192
     40 C28         3.9734    6.1072    5.9467 C.2       1 <0>         0.0437
     41 S2          3.6673    4.4611    6.1185 S.3       1 <0>         0.1448
     42 H3         -0.9591    1.9053    0.0259 H         1 <0>         0.1218
     43 H4          1.1563    3.1654    0.0076 H         1 <0>         0.1187
     44 H5          3.3051    1.9634   -0.0196 H         1 <0>         0.1102
     45 H6          1.2231   -1.7588   -0.0176 H         1 <0>         0.1171
     46 H7         -0.9258   -0.5567    0.0082 H         1 <0>         0.1220
     47 H8          3.5884   -1.6586   -0.5549 H         1 <0>         0.0974
     48 H9          4.4573   -0.1052   -0.5563 H         1 <0>         0.0880
     49 H10         5.2115   -2.8013    0.9740 H         1 <0>         0.1596
     50 H11         6.1965   -1.3336    0.7644 H         1 <0>         0.1459
     51 H12         6.1619   -1.0525    3.1322 H         1 <0>         0.4236
     52 H13         6.9393   -3.7673    2.3291 H         1 <0>         0.1599
     53 H14         7.9242   -2.2996    2.1195 H         1 <0>         0.1460
     54 H15         8.9070   -4.6322    3.6166 H         1 <0>         0.0979
     55 H16         9.7766   -3.0791    3.6158 H         1 <0>         0.0884
     56 H17        10.5752   -2.1012    5.6919 H         1 <0>         0.1104
     57 H18        11.3301   -2.5226    7.9975 H         1 <0>         0.1190
     58 H19        10.6735   -4.5983    9.1480 H         1 <0>         0.1221
     59 H20         9.2614   -6.2522    7.9932 H         1 <0>         0.1222
     60 H21         8.4996   -5.8270    5.6905 H         1 <0>         0.1173
     61 H22         8.0475   -0.8410    4.1862 H         1 <0>         0.4047
     62 H23         7.0159   -0.4895    8.4179 H         1 <0>         0.1038
     63 H24         8.7699   -0.7825    8.4954 H         1 <0>         0.1004
     64 H25         6.9344    4.2071    9.2096 H         1 <0>         0.1786
     65 H26         9.5034    4.5652    9.5306 H         1 <0>         0.2038
     66 H27         5.3562    0.6636    2.0753 H         1 <0>         0.4042
     67 H28         1.8565    3.0827    3.0731 H         1 <0>         0.0988
     68 H29         2.1553    2.2280    4.6055 H         1 <0>         0.0881
     69 H30         2.8839    5.5855    2.9013 H         1 <0>         0.1745
     70 H31         4.3581    6.7985    6.6819 H         1 <0>         0.2230
     71 H32         5.2501   -2.4111    3.3262 H         1 <0>         0.4345
@<TRIPOS>BOND
     1    1    6 ar
     2    1    2 ar
     3    1   42 1
     4    2    3 ar
     5    2   43 1
     6    3    4 ar
     7    3   44 1
     8    4    5 ar
     9    4    7 1
    10    5    6 ar
    11    5   45 1
    12    6   46 1
    13    7    8 1
    14    7   47 1
    15    7   48 1
    16    8    9 1
    17    8   10 1
    18    8   32 1
    19   10   11 1
    20   10   49 1
    21   10   50 1
    22   11   12 1
    23   11   51 1
    24   11   71 1
    25   12   13 1
    26   12   52 1
    27   12   53 1
    28   13   14 1
    29   13   15 1
    30   13   22 1
    31   15   16 1
    32   15   54 1
    33   15   55 1
    34   16   21 ar
    35   16   17 ar
    36   17   18 ar
    37   17   56 1
    38   18   19 ar
    39   18   57 1
    40   19   20 ar
    41   19   58 1
    42   20   21 ar
    43   20   59 1
    44   21   60 1
    45   22   23 am
    46   22   61 1
    47   23   24 2
    48   23   25 1
    49   25   26 1
    50   26   27 1
    51   26   62 1
    52   26   63 1
    53   27   31 1
    54   27   28 2
    55   28   29 1
    56   29   30 2
    57   29   64 1
    58   30   31 1
    59   30   65 1
    60   32   33 am
    61   32   66 1
    62   33   34 2
    63   33   35 1
    64   35   36 1
    65   36   37 1
    66   36   67 1
    67   36   68 1
    68   37   41 1
    69   37   38 2
    70   38   39 1
    71   38   69 1
    72   39   40 2
    73   40   41 1
    74   40   70 1
@<TRIPOS>MOLECULE
CHEMBL16596
   75    79     0     0     0
SMALL
USER_CHARGES

@<TRIPOS>ATOM
      1 C1         -0.1463    1.2670   -0.6773 C.3       1 <0>        -0.1356
      2 C2         -0.0085   -0.2557   -0.6197 C.3       1 <0>        -0.0650
      3 C3          0.5504   -0.6659    0.7443 C.3       1 <0>        -0.1404
      4 C4         -1.3812   -0.9001   -0.8231 C.3       1 <0>        -0.1254
      5 S1          1.1198   -0.8106   -1.9272 S.3       1 <0>        -0.0785
      6 C5          2.6723   -0.1097   -1.4764 C.2       1 <0>        -0.2126
      7 C6          3.1431    1.2446   -1.7907 C.ar      1 <0>        -0.0297
      8 C7          2.5882    2.3258   -2.4786 C.ar      1 <0>        -0.1042
      9 C8          3.3084    3.4966   -2.6044 C.ar      1 <0>         0.1009
     10 C9          4.5816    3.6007   -2.0494 C.ar      1 <0>        -0.1867
     11 C10         5.1386    2.5411   -1.3695 C.ar      1 <0>        -0.0864
     12 C11         4.4284    1.3526   -1.2310 C.ar      1 <0>         0.0715
     13 N1          4.7123    0.1484   -0.6222 N.pl3     1 <0>        -0.4710
     14 C12         3.6496   -0.7126   -0.7733 C.2       1 <0>         0.1935
     15 C13         3.5900   -2.1193   -0.2359 C.3       1 <0>        -0.0411
     16 C14         4.0945   -3.0942   -1.3018 C.3       1 <0>        -0.1221
     17 C15         3.2781   -2.9158   -2.5834 C.3       1 <0>        -0.1206
     18 C16         5.5697   -2.8123   -1.5934 C.3       1 <0>        -0.1286
     19 C17         3.9424   -4.5077   -0.8020 C.2       1 <0>         0.5075
     20 O1          3.7490   -5.4161   -1.5918 O.co2     1 <0>        -0.6896
     21 O2          4.0126   -4.7429    0.3923 O.co2     1 <0>        -0.6993
     22 C18         5.9566   -0.1654    0.0844 C.3       1 <0>         0.1377
     23 C19         5.8612    0.3180    1.5086 C.ar      1 <0>        -0.1053
     24 C20         6.1691    1.6304    1.8149 C.ar      1 <0>        -0.0878
     25 C21         6.0818    2.0743    3.1209 C.ar      1 <0>        -0.1142
     26 C22         5.6860    1.2049    4.1217 C.ar      1 <0>        -0.0275
     27 C23         5.3779   -0.1084    3.8145 C.ar      1 <0>        -0.1081
     28 C24         5.4602   -0.5497    2.5073 C.ar      1 <0>        -0.0827
     29 Cl1         5.5766    1.7616    5.7624 Cl        1 <0>        -0.0733
     30 O3          2.7729    4.5526   -3.2733 O.3       1 <0>        -0.3140
     31 C25         3.5714    5.7340   -3.3666 C.3       1 <0>         0.1128
     32 C26         2.8196    6.7891   -4.1365 C.ar      1 <0>         0.1650
     33 C27         1.5429    6.4997   -4.6137 C.ar      1 <0>        -0.1501
     34 C28         0.8467    7.4437   -5.3134 C.ar      1 <0>        -0.0579
     35 C29         1.4562    8.6941   -5.5293 C.ar      1 <0>        -0.1045
     36 C30         0.8017    9.7137   -6.2393 C.ar      1 <0>        -0.0947
     37 C31         1.4246   10.9096   -6.4267 C.ar      1 <0>        -0.1187
     38 C32         2.7042   11.1359   -5.9232 C.ar      1 <0>        -0.1020
     39 C33         3.3675   10.1702   -5.2311 C.ar      1 <0>        -0.0929
     40 C34         2.7572    8.9219   -5.0164 C.ar      1 <0>         0.1320
     41 N2          3.3820    7.9564   -4.3349 N.ar      1 <0>        -0.4731
     42 H1          0.8316    1.7261   -0.5324 H         1 <0>         0.0595
     43 H2         -0.5445    1.5593   -1.6490 H         1 <0>         0.0608
     44 H3         -0.8243    1.6005    0.1083 H         1 <0>         0.0516
     45 H4         -0.0822   -0.2593    1.5333 H         1 <0>         0.0542
     46 H5          0.5687   -1.7533    0.8173 H         1 <0>         0.0678
     47 H6          1.5628   -0.2772    0.8539 H         1 <0>         0.0562
     48 H7         -1.7793   -0.6078   -1.7948 H         1 <0>         0.0603
     49 H8         -1.2830   -1.9849   -0.7820 H         1 <0>         0.0656
     50 H9         -2.0591   -0.5666   -0.0374 H         1 <0>         0.0638
     51 H10         1.6014    2.2462   -2.9101 H         1 <0>         0.1320
     52 H11         5.1371    4.5209   -2.1536 H         1 <0>         0.1280
     53 H12         6.1269    2.6323   -0.9436 H         1 <0>         0.1187
     54 H13         4.2171   -2.1958    0.6524 H         1 <0>         0.0738
     55 H14         2.5605   -2.3657    0.0238 H         1 <0>         0.0945
     56 H15         3.4574   -1.9217   -2.9930 H         1 <0>         0.0354
     57 H16         3.5774   -3.6686   -3.3126 H         1 <0>         0.0534
     58 H17         2.2178   -3.0299   -2.3577 H         1 <0>         0.0640
     59 H18         6.1613   -3.0116   -0.6999 H         1 <0>         0.0476
     60 H19         5.9091   -3.4561   -2.4049 H         1 <0>         0.0546
     61 H20         5.6898   -1.7685   -1.8833 H         1 <0>         0.0399
     62 H21         6.1169   -1.2435    0.0766 H         1 <0>         0.1151
     63 H22         6.7912    0.3296   -0.4121 H         1 <0>         0.0959
     64 H23         6.4784    2.3089    1.0336 H         1 <0>         0.1293
     65 H24         6.3228    3.0996    3.3601 H         1 <0>         0.1326
     66 H25         5.0692   -0.7876    4.5954 H         1 <0>         0.1370
     67 H26         5.2152   -1.5736    2.2667 H         1 <0>         0.1422
     68 H27         3.7923    6.1033   -2.3651 H         1 <0>         0.0860
     69 H28         4.5034    5.5028   -3.8823 H         1 <0>         0.0867
     70 H29         1.1044    5.5299   -4.4307 H         1 <0>         0.1508
     71 H30        -0.1437    7.2365   -5.6909 H         1 <0>         0.1420
     72 H31        -0.1899    9.5499   -6.6346 H         1 <0>         0.1306
     73 H32         0.9207   11.6930   -6.9732 H         1 <0>         0.1274
     74 H33         3.1772   12.0933   -6.0852 H         1 <0>         0.1298
     75 H34         4.3590   10.3618   -4.8482 H         1 <0>         0.1355
@<TRIPOS>BOND
     1    1    2 1
     2    1   42 1
     3    1   43 1
     4    1   44 1
     5    2    3 1
     6    2    4 1
     7    2    5 1
     8    3   45 1
     9    3   46 1
    10    3   47 1
    11    4   48 1
    12    4   49 1
    13    4   50 1
    14    5    6 1
    15    6   14 2
    16    6    7 1
    17    7   12 ar
    18    7    8 ar
    19    8    9 ar
    20    8   51 1
    21    9   10 ar
    22    9   30 1
    23   10   11 ar
    24   10   52 1
    25   11   12 ar
    26   11   53 1
    27   12   13 1
    28   13   14 1
    29   13   22 1
    30   14   15 1
    31   15   16 1
    32   15   54 1
    33   15   55 1
    34   16   17 1
    35   16   18 1
    36   16   19 1
    37   17   56 1
    38   17   57 1
    39   17   58 1
    40   18   59 1
    41   18   60 1
    42   18   61 1
    43   19   20 2
    44   19   21 1
    45   22   23 1
    46   22   62 1
    47   22   63 1
    48   23   28 ar
    49   23   24 ar
    50   24   25 ar
    51   24   64 1
    52   25   26 ar
    53   25   65 1
    54   26   27 ar
    55   26   29 1
    56   27   28 ar
    57   27   66 1
    58   28   67 1
    59   30   31 1
    60   31   32 1
    61   31   68 1
    62   31   69 1
    63   32   41 ar
    64   32   33 ar
    65   33   34 ar
    66   33   70 1
    67   34   35 ar
    68   34   71 1
    69   35   40 ar
    70   35   36 ar
    71   36   37 ar
    72   36   72 1
    73   37   38 ar
    74   37   73 1
    75   38   39 ar
    76   38   74 1
    77   39   40 ar
    78   39   75 1
    79   40   41 ar
@<TRIPOS>MOLECULE
CHEMBL1172882
   35    37     0     0     0
SMALL
USER_CHARGES

@<TRIPOS>ATOM
      1 C1         -0.0167    1.3779    0.0096 C.ar      1 <0>        -0.0990
      2 C2          1.1673    2.0881    0.0021 C.ar      1 <0>        -0.1203
      3 C3          2.3853    1.4115   -0.0132 C.ar      1 <0>        -0.0288
      4 C4          2.4037    0.0189   -0.0208 C.ar      1 <0>        -0.1379
      5 C5          1.2114   -0.6858   -0.0132 C.ar      1 <0>         0.1088
      6 C6          0.0021   -0.0041    0.0020 C.ar      1 <0>        -0.1445
      7 O1          1.2253   -2.0447   -0.0207 O.3       1 <0>        -0.4986
      8 C7          3.6592    2.1726   -0.0217 C.ar      1 <0>        -0.0482
      9 C8          4.8774    1.4966   -0.0428 C.ar      1 <0>        -0.1055
     10 C9          6.0592    2.2095   -0.0512 C.ar      1 <0>        -0.1094
     11 C10         6.0358    3.5924   -0.0387 C.ar      1 <0>        -0.0763
     12 C11         4.8293    4.2686   -0.0177 C.ar      1 <0>        -0.1096
     13 C12         3.6414    3.5658   -0.0145 C.ar      1 <0>        -0.1048
     14 C13         7.3295    4.3653   -0.0474 C.3       1 <0>        -0.0453
     15 C14         7.7436    4.6355   -1.4710 C.ar      1 <0>        -0.0326
     16 C15         8.5447    3.7376   -2.1597 C.ar      1 <0>        -0.1689
     17 C16         8.9044    4.0191   -3.4641 C.ar      1 <0>         0.1012
     18 N1          8.4951    5.1258   -4.0527 N.ar      1 <0>        -0.4883
     19 C17         7.7327    6.0022   -3.4285 C.ar      1 <0>         0.1011
     20 C18         7.3279    5.7852   -2.1250 C.ar      1 <0>        -0.1689
     21 H1         -0.9599    1.9036    0.0260 H         1 <0>         0.1308
     22 H2          1.1494    3.1680    0.0078 H         1 <0>         0.1289
     23 H3          3.3452   -0.5101   -0.0330 H         1 <0>         0.1317
     24 H4         -0.9267   -0.5552    0.0079 H         1 <0>         0.1303
     25 H5          1.2377   -2.4428    0.8605 H         1 <0>         0.3923
     26 H6          4.8968    0.4168   -0.0523 H         1 <0>         0.1265
     27 H7          7.0040    1.6865   -0.0672 H         1 <0>         0.1251
     28 H8          4.8167    5.3485   -0.0080 H         1 <0>         0.1253
     29 H9          2.6999    4.0948   -0.0027 H         1 <0>         0.1276
     30 H10         7.1912    5.3111    0.4765 H         1 <0>         0.0889
     31 H11         8.1039    3.7831    0.4520 H         1 <0>         0.0888
     32 H12         8.8836    2.8298   -1.6828 H         1 <0>         0.1338
     33 H13         9.5281    3.3247   -4.0074 H         1 <0>         0.1560
     34 H14         7.4174    6.8977   -3.9433 H         1 <0>         0.1559
     35 H15         6.6993    6.5043   -1.6207 H         1 <0>         0.1339
@<TRIPOS>BOND
     1    1    6 ar
     2    1    2 ar
     3    1   21 1
     4    2    3 ar
     5    2   22 1
     6    3    4 ar
     7    3    8 1
     8    4    5 ar
     9    4   23 1
    10    5    6 ar
    11    5    7 1
    12    6   24 1
    13    7   25 1
    14    8   13 ar
    15    8    9 ar
    16    9   10 ar
    17    9   26 1
    18   10   11 ar
    19   10   27 1
    20   11   12 ar
    21   11   14 1
    22   12   13 ar
    23   12   28 1
    24   13   29 1
    25   14   15 1
    26   14   30 1
    27   14   31 1
    28   15   20 ar
    29   15   16 ar
    30   16   17 ar
    31   16   32 1
    32   17   18 ar
    33   17   33 1
    34   18   19 ar
    35   19   20 ar
    36   19   34 1
    37   20   35 1
@<TRIPOS>MOLECULE
CHEMBL498252
   47    51     0     0     0
SMALL
USER_CHARGES

@<TRIPOS>ATOM
      1 C1         -0.0184    1.5028    0.0103 C.3       1 <0>        -0.1050
      2 C2          0.0021   -0.0041    0.0020 C.2       1 <0>         0.1029
      3 C3          0.0077   -0.7871   -1.1000 C.2       1 <0>         0.0090
      4 N1          0.0285   -2.0858   -0.6720 N.pl3     1 <0>        -0.2724
      5 C4          0.0435   -3.2800   -1.3386 C.2       1 <0>        -0.0205
      6 C5          0.0600   -4.4504   -0.6585 C.2       1 <0>         0.2396
      7 C6          0.0626   -4.4568    0.7541 C.2       1 <0>        -0.0993
      8 C7          0.0541   -3.2722    1.4246 C.2       1 <0>         0.2485
      9 C8          0.0343   -2.0572    0.6961 C.cat     1 <0>         0.2456
     10 N2          0.0234   -0.7888    1.0812 N.pl3     1 <0>        -0.4948
     11 N3          0.0700   -3.2307    2.8217 N.pl3     1 <0>        -0.7142
     12 C9         -0.2074   -4.4620    3.5741 C.3       1 <0>         0.1951
     13 H1         -1.2747   -4.6813    3.5435 H         1 <0>         0.0960
     14 C10         0.5772   -5.6011    2.9091 C.3       1 <0>        -0.1331
     15 C11         0.0701   -5.7767    1.4778 C.3       1 <0>        -0.0793
     16 C12         0.2397   -4.2986    5.0040 C.ar      1 <0>        -0.1115
     17 C13         1.4197   -3.6369    5.2879 C.ar      1 <0>        -0.1130
     18 C14         1.8298   -3.4870    6.5995 C.ar      1 <0>        -0.1150
     19 C15         1.0597   -3.9985    7.6272 C.ar      1 <0>        -0.1053
     20 C16        -0.1208   -4.6595    7.3433 C.ar      1 <0>        -0.1109
     21 C17        -0.5331   -4.8056    6.0320 C.ar      1 <0>        -0.1002
     22 N4          0.0741   -5.6656   -1.3616 N.pl3     1 <0>        -0.3465
     23 C18         0.0787   -5.8248   -2.6989 C.2       1 <0>         0.2747
     24 N5          0.0924   -7.1083   -2.9543 N.2       1 <0>        -0.5116
     25 C19         0.0970   -7.7964   -1.8134 C.2       1 <0>         0.2344
     26 N6          0.0923   -6.9573   -0.8103 N.2       1 <0>        -0.3021
     27 C20        -0.0067   -0.3171   -2.5318 C.3       1 <0>        -0.0925
     28 H2          1.0042    1.8801    0.0026 H         1 <0>         0.1078
     29 H3         -0.5455    1.8639   -0.8728 H         1 <0>         0.1116
     30 H4         -0.5286    1.8543    0.9071 H         1 <0>         0.0953
     31 H5          0.0419   -3.2894   -2.4185 H         1 <0>         0.1985
     32 H6          0.2608   -2.4015    3.2874 H         1 <0>         0.4091
     33 H7          1.6385   -5.3532    2.8930 H         1 <0>         0.0798
     34 H8          0.4239   -6.5248    3.4671 H         1 <0>         0.1004
     35 H9         -0.9426   -6.1792    1.5020 H         1 <0>         0.0964
     36 H10         0.7206   -6.4731    0.9487 H         1 <0>         0.1272
     37 H11         2.0213   -3.2372    4.4850 H         1 <0>         0.1180
     38 H12         2.7520   -2.9706    6.8212 H         1 <0>         0.1273
     39 H13         1.3804   -3.8821    8.6518 H         1 <0>         0.1294
     40 H14        -0.7223   -5.0594    8.1462 H         1 <0>         0.1310
     41 H15        -1.4572   -5.3187    5.8104 H         1 <0>         0.1282
     42 H16         0.0718   -5.0319   -3.4323 H         1 <0>         0.2300
     43 H17         0.1079   -8.8731   -1.7303 H         1 <0>         0.2353
     44 H18         1.0174   -0.1891   -2.8825 H         1 <0>         0.1008
     45 H19        -0.5134   -1.0565   -3.1519 H         1 <0>         0.0896
     46 H20        -0.5345    0.6344   -2.5965 H         1 <0>         0.1085
     47 H21         0.0283   -0.4802    2.0008 H         1 <0>         0.4570
@<TRIPOS>BOND
     1    1    2 1
     2    1   28 1
     3    1   29 1
     4    1   30 1
     5    2   10 1
     6    2    3 2
     7    3    4 1
     8    3   27 1
     9    4    9 1
    10    4    5 1
    11    5    6 2
    12    5   31 1
    13    6    7 1
    14    6   22 1
    15    7   15 1
    16    7    8 2
    17    8    9 1
    18    8   11 1
    19    9   10 2
    20   10   47 1
    21   11   12 1
    22   11   32 1
    23   12   13 1
    24   12   14 1
    25   12   16 1
    26   14   15 1
    27   14   33 1
    28   14   34 1
    29   15   35 1
    30   15   36 1
    31   16   21 ar
    32   16   17 ar
    33   17   18 ar
    34   17   37 1
    35   18   19 ar
    36   18   38 1
    37   19   20 ar
    38   19   39 1
    39   20   21 ar
    40   20   40 1
    41   21   41 1
    42   22   26 1
    43   22   23 1
    44   23   24 2
    45   23   42 1
    46   24   25 1
    47   25   26 2
    48   25   43 1
    49   27   44 1
    50   27   45 1
    51   27   46 1
@<TRIPOS>MOLECULE
CHEMBL498252
   46    50     0     0     0
SMALL
USER_CHARGES

@<TRIPOS>ATOM
      1 C1         -0.0184    1.5028    0.0103 C.3       1 <0>        -0.0717
      2 C2          0.0021   -0.0041    0.0020 C.2       1 <0>         0.0555
      3 C3          0.0077   -0.7871   -1.1000 C.2       1 <0>        -0.0482
      4 N1          0.0285   -2.0858   -0.6720 N.pl3     1 <0>        -0.3262
      5 C4          0.0435   -3.2800   -1.3386 C.2       1 <0>        -0.0306
      6 C5          0.0600   -4.4504   -0.6585 C.2       1 <0>         0.1991
      7 C6          0.0626   -4.4568    0.7541 C.2       1 <0>        -0.1863
      8 C7          0.0541   -3.2722    1.4246 C.2       1 <0>         0.2903
      9 C8          0.0343   -2.0572    0.6961 C.2       1 <0>         0.1869
     10 N2          0.0234   -0.7888    1.0812 N.2       1 <0>        -0.4707
     11 N3          0.0700   -3.2307    2.8217 N.pl3     1 <0>        -0.7118
     12 C9         -0.2074   -4.4620    3.5741 C.3       1 <0>         0.1937
     13 H1         -1.2747   -4.6813    3.5435 H         1 <0>         0.0832
     14 C10         0.5772   -5.6011    2.9091 C.3       1 <0>        -0.1288
     15 C11         0.0701   -5.7767    1.4778 C.3       1 <0>        -0.0598
     16 C12         0.2397   -4.2986    5.0040 C.ar      1 <0>        -0.0974
     17 C13         1.4197   -3.6369    5.2879 C.ar      1 <0>        -0.1066
     18 C14         1.8298   -3.4870    6.5995 C.ar      1 <0>        -0.1171
     19 C15         1.0597   -3.9985    7.6272 C.ar      1 <0>        -0.1147
     20 C16        -0.1208   -4.6595    7.3433 C.ar      1 <0>        -0.1170
     21 C17        -0.5331   -4.8056    6.0320 C.ar      1 <0>        -0.1048
     22 N4          0.0741   -5.6656   -1.3616 N.pl3     1 <0>        -0.3216
     23 C18         0.0787   -5.8248   -2.6989 C.2       1 <0>         0.2613
     24 N5          0.0924   -7.1083   -2.9543 N.2       1 <0>        -0.5302
     25 C19         0.0970   -7.7964   -1.8134 C.2       1 <0>         0.2072
     26 N6          0.0923   -6.9573   -0.8103 N.2       1 <0>        -0.3005
     27 C20        -0.0067   -0.3171   -2.5318 C.3       1 <0>        -0.0741
     28 H2          1.0042    1.8801    0.0026 H         1 <0>         0.0753
     29 H3         -0.5455    1.8639   -0.8728 H         1 <0>         0.0747
     30 H4         -0.5286    1.8543    0.9071 H         1 <0>         0.0754
     31 H5          0.0419   -3.2894   -2.4185 H         1 <0>         0.1640
     32 H6          0.2608   -2.4015    3.2874 H         1 <0>         0.4151
     33 H7          1.6385   -5.3532    2.8930 H         1 <0>         0.0726
     34 H8          0.4239   -6.5248    3.4671 H         1 <0>         0.0845
     35 H9         -0.9426   -6.1792    1.5020 H         1 <0>         0.0728
     36 H10         0.7206   -6.4731    0.9487 H         1 <0>         0.1093
     37 H11         2.0213   -3.2372    4.4850 H         1 <0>         0.1222
     38 H12         2.7520   -2.9706    6.8212 H         1 <0>         0.1241
     39 H13         1.3804   -3.8821    8.6518 H         1 <0>         0.1239
     40 H14        -0.7223   -5.0594    8.1462 H         1 <0>         0.1254
     41 H15        -1.4572   -5.3187    5.8104 H         1 <0>         0.1250
     42 H16         0.0718   -5.0319   -3.4323 H         1 <0>         0.2222
     43 H17         0.1079   -8.8731   -1.7303 H         1 <0>         0.2254
     44 H18         1.0174   -0.1891   -2.8825 H         1 <0>         0.0759
     45 H19        -0.5134   -1.0565   -3.1519 H         1 <0>         0.0657
     46 H20        -0.5345    0.6344   -2.5965 H         1 <0>         0.0877
@<TRIPOS>BOND
     1    1    2 1
     2    1   28 1
     3    1   29 1
     4    1   30 1
     5    2   10 1
     6    2    3 2
     7    3    4 1
     8    3   27 1
     9    4    9 1
    10    4    5 1
    11    5    6 2
    12    5   31 1
    13    6    7 1
    14    6   22 1
    15    7   15 1
    16    7    8 2
    17    8    9 1
    18    8   11 1
    19    9   10 2
    20   11   12 1
    21   11   32 1
    22   12   13 1
    23   12   14 1
    24   12   16 1
    25   14   15 1
    26   14   33 1
    27   14   34 1
    28   15   35 1
    29   15   36 1
    30   16   21 ar
    31   16   17 ar
    32   17   18 ar
    33   17   37 1
    34   18   19 ar
    35   18   38 1
    36   19   20 ar
    37   19   39 1
    38   20   21 ar
    39   20   40 1
    40   21   41 1
    41   22   26 1
    42   22   23 1
    43   23   24 2
    44   23   42 1
    45   24   25 1
    46   25   26 2
    47   25   43 1
    48   27   44 1
    49   27   45 1
    50   27   46 1
@<TRIPOS>MOLECULE
CHEMBL212084
   37    41     0     0     0
SMALL
USER_CHARGES

@<TRIPOS>ATOM
      1 C1         -0.0167    1.3790    0.0096 C.ar      1 <0>        -0.0821
      2 C2          1.1714    2.0900    0.0021 C.ar      1 <0>        -0.0976
      3 C3          2.3742    1.4202   -0.0130 C.ar      1 <0>        -0.0598
      4 C4          2.4051    0.0260   -0.0207 C.ar      1 <0>        -0.0371
      5 C5          1.2022   -0.6841   -0.0130 C.ar      1 <0>        -0.0725
      6 C6          0.0021   -0.0041    0.0020 C.ar      1 <0>        -0.1173
      7 C7         -1.2948   -0.7717    0.0102 C.3       1 <0>         0.1481
      8 N1         -1.7281   -1.0130   -1.3682 N.pl3     1 <0>        -0.4564
      9 C8         -2.5251   -0.1960   -2.1239 C.2       1 <0>        -0.0538
     10 C9         -2.6717   -0.7940   -3.3216 C.2       1 <0>        -0.0288
     11 N2         -1.9831   -1.9448   -3.2978 N.2       1 <0>        -0.4940
     12 C10        -1.4112   -2.0802   -2.1327 C.2       1 <0>         0.1823
     13 C11         3.8122   -0.4312   -0.0366 C.2       1 <0>         0.1016
     14 C12         4.6517    0.6414   -0.0389 C.2       1 <0>        -0.2232
     15 C13         5.9712    0.1618   -0.0537 C.2       1 <0>         0.1607
     16 N3          5.9307   -1.1541   -0.0601 N.2       1 <0>        -0.2576
     17 N4          4.5894   -1.5555   -0.0500 N.pl3     1 <0>        -0.4554
     18 H1          4.2681   -2.4708   -0.0515 H         1 <0>         0.4412
     19 C14         7.2002    0.9949   -0.0617 C.2       1 <0>        -0.0531
     20 C15         8.3465    0.5775    0.6070 C.2       1 <0>        -0.1389
     21 C16         9.4465    1.3637    0.5770 C.2       1 <0>        -0.1710
     22 S1          8.8973    2.7444   -0.4117 S.3       1 <0>         0.0589
     23 C17         7.2322    2.1857   -0.7305 C.2       1 <0>        -0.1487
     24 C18         3.8074    1.8926   -0.0241 C.3       1 <0>        -0.0102
     25 H2         -0.9597    1.9053    0.0260 H         1 <0>         0.1318
     26 H3          1.1546    3.1699    0.0077 H         1 <0>         0.1356
     27 H4          1.2117   -1.7640   -0.0192 H         1 <0>         0.1243
     28 H5         -1.1493   -1.7254    0.5176 H         1 <0>         0.1038
     29 H6         -2.0558   -0.1936    0.5344 H         1 <0>         0.1047
     30 H7         -2.9541    0.7468   -1.8183 H         1 <0>         0.1734
     31 H8         -3.2436   -0.4137   -4.1551 H         1 <0>         0.1693
     32 H9         -0.7896   -2.9095   -1.8291 H         1 <0>         0.2006
     33 H10         8.3577   -0.3603    1.1424 H         1 <0>         0.1382
     34 H11        10.4108    1.1983    1.0343 H         1 <0>         0.1898
     35 H12         6.4519    2.6655   -1.3025 H         1 <0>         0.1890
     36 H13         4.0005    2.4873   -0.9169 H         1 <0>         0.1010
     37 H14         4.0176    2.4777    0.8712 H         1 <0>         0.1032
@<TRIPOS>BOND
     1    1    6 ar
     2    1    2 ar
     3    1   25 1
     4    2    3 ar
     5    2   26 1
     6    3   24 1
     7    3    4 ar
     8    4    5 ar
     9    4   13 1
    10    5    6 ar
    11    5   27 1
    12    6    7 1
    13    7    8 1
    14    7   28 1
    15    7   29 1
    16    8   12 1
    17    8    9 1
    18    9   10 2
    19    9   30 1
    20   10   11 1
    21   10   31 1
    22   11   12 2
    23   12   32 1
    24   13   17 1
    25   13   14 2
    26   14   15 1
    27   14   24 1
    28   15   16 2
    29   15   19 1
    30   16   17 1
    31   17   18 1
    32   19   23 2
    33   19   20 1
    34   20   21 2
    35   20   33 1
    36   21   22 1
    37   21   34 1
    38   22   23 1
    39   23   35 1
    40   24   36 1
    41   24   37 1
@<TRIPOS>MOLECULE
CHEMBL212084
   37    41     0     0     0
SMALL
USER_CHARGES

@<TRIPOS>ATOM
      1 C1         -0.0167    1.3788    0.0096 C.ar      1 <0>        -0.0822
      2 C2          1.1709    2.0889    0.0021 C.ar      1 <0>        -0.1015
      3 C3          2.3763    1.4191   -0.0130 C.ar      1 <0>        -0.0614
      4 C4          2.4049    0.0274   -0.0207 C.ar      1 <0>        -0.0188
      5 C5          1.2033   -0.6825   -0.0130 C.ar      1 <0>        -0.0630
      6 C6          0.0021   -0.0041    0.0020 C.ar      1 <0>        -0.1204
      7 C7         -1.2942   -0.7726    0.0107 C.3       1 <0>         0.1485
      8 N1         -1.7279   -1.0142   -1.3676 N.pl3     1 <0>        -0.4558
      9 C8         -2.5257   -0.1978   -2.1230 C.2       1 <0>        -0.0547
     10 C9         -2.6724   -0.7960   -3.3206 C.2       1 <0>        -0.0298
     11 N2         -1.9830   -1.9462   -3.2971 N.2       1 <0>        -0.4952
     12 C10        -1.4105   -2.0812   -2.1322 C.2       1 <0>         0.1842
     13 C11         3.8145   -0.4395   -0.0366 C.2       1 <0>         0.0948
     14 C12         4.6704    0.6742   -0.0388 C.2       1 <0>        -0.2347
     15 C13         5.9548    0.2209   -0.0529 C.2       1 <0>         0.1703
     16 N3          5.9076   -1.1419   -0.0593 N.pl3     1 <0>        -0.4607
     17 N4          4.5616   -1.5273   -0.0499 N.2       1 <0>        -0.2544
     18 H1          6.6719   -1.7391   -0.0693 H         1 <0>         0.4453
     19 C14         7.1775    1.0548   -0.0606 C.2       1 <0>        -0.0779
     20 C15         8.2329    0.7643   -0.9216 C.2       1 <0>        -0.1528
     21 C16         9.3328    1.5497   -0.8994 C.2       1 <0>        -0.1653
     22 S1          8.9178    2.7485    0.3558 S.3       1 <0>         0.0723
     23 C17         7.2955    2.1327    0.7739 C.2       1 <0>        -0.1405
     24 C18         3.8037    1.9088   -0.0240 C.3       1 <0>        -0.0003
     25 H2         -0.9596    1.9051    0.0260 H         1 <0>         0.1307
     26 H3          1.1538    3.1688    0.0077 H         1 <0>         0.1336
     27 H4          1.2138   -1.7624   -0.0192 H         1 <0>         0.1280
     28 H5         -1.1478   -1.7262    0.5180 H         1 <0>         0.1044
     29 H6         -2.0555   -0.1951    0.5352 H         1 <0>         0.1039
     30 H7         -2.9553    0.7447   -1.8172 H         1 <0>         0.1728
     31 H8         -3.2448   -0.4160   -4.1539 H         1 <0>         0.1685
     32 H9         -0.7882   -2.9101   -1.8288 H         1 <0>         0.2016
     33 H10         8.1735   -0.0764   -1.5970 H         1 <0>         0.1351
     34 H11        10.2332    1.4716   -1.4906 H         1 <0>         0.1915
     35 H12         6.5904    2.5117    1.4989 H         1 <0>         0.1918
     36 H13         3.9880    2.5071   -0.9163 H         1 <0>         0.0967
     37 H14         4.0051    2.4975    0.8710 H         1 <0>         0.0956
@<TRIPOS>BOND
     1    1    6 ar
     2    1    2 ar
     3    1   25 1
     4    2    3 ar
     5    2   26 1
     6    3   24 1
     7    3    4 ar
     8    4    5 ar
     9    4   13 1
    10    5    6 ar
    11    5   27 1
    12    6    7 1
    13    7    8 1
    14    7   28 1
    15    7   29 1
    16    8   12 1
    17    8    9 1
    18    9   10 2
    19    9   30 1
    20   10   11 1
    21   10   31 1
    22   11   12 2
    23   12   32 1
    24   13   17 2
    25   13   14 1
    26   14   24 1
    27   14   15 2
    28   15   19 1
    29   15   16 1
    30   16   17 1
    31   16   18 1
    32   19   23 2
    33   19   20 1
    34   20   21 2
    35   20   33 1
    36   21   22 1
    37   21   34 1
    38   22   23 1
    39   23   35 1
    40   24   36 1
    41   24   37 1
@<TRIPOS>MOLECULE
CHEMBL1081514
   69    70     0     0     0
SMALL
USER_CHARGES

@<TRIPOS>ATOM
      1 C1         -1.7335    1.0070   -0.9194 C.3       1 <0>        -0.1857
      2 C2         -1.0047   -0.3331   -0.8014 C.3       1 <0>        -0.0167
      3 N1         -1.9525   -1.3697   -0.3713 N.4       1 <0>        -0.3823
      4 C3         -1.2316   -2.6300   -0.1476 C.3       1 <0>        -0.0342
      5 C4         -0.2591   -2.4607    1.0213 C.3       1 <0>         0.1512
      6 C5          0.4004   -3.8051    1.3349 C.3       1 <0>        -0.1335
      7 C6          1.2897   -4.2083    0.1869 C.2       1 <0>         0.4669
      8 O1          1.4787   -3.4427   -0.7286 O.2       1 <0>        -0.5111
      9 O2          1.8717   -5.4178    0.1815 O.3       1 <0>        -0.3423
     10 C7          2.7018   -5.7333   -0.9381 C.3       1 <0>         0.0309
     11 N2         -0.9899   -1.9885    2.2000 N.am      1 <0>        -0.7279
     12 C8         -0.3609   -1.2401    3.1277 C.2       1 <0>         0.6543
     13 O3          0.7850   -0.8804    2.9432 O.2       1 <0>        -0.5427
     14 O4         -1.0022   -0.8910    4.2589 O.3       1 <0>        -0.3522
     15 C9         -0.2749   -0.0969    5.1983 C.3       1 <0>         0.1842
     16 C10        -1.1473    0.1934    6.3924 C.2       1 <0>        -0.2413
     17 C11        -1.2975   -0.5052    7.5468 C.2       1 <0>         0.0788
     18 N3         -2.1396   -0.0166    8.4354 N.2       1 <0>        -0.5195
     19 C12        -2.7994    1.0923    8.2114 C.2       1 <0>         0.0465
     20 S1         -2.2640    1.5558    6.6845 S.3       1 <0>         0.1446
     21 C13        -2.9697   -1.5657   -1.4129 C.3       1 <0>        -0.0403
     22 C14        -4.0253   -2.5552   -0.9152 C.3       1 <0>         0.1579
     23 C15        -5.1418   -2.6753   -1.9543 C.3       1 <0>        -0.1424
     24 C16        -6.1272   -3.7268   -1.5136 C.2       1 <0>         0.4629
     25 O5         -5.9999   -4.2608   -0.4372 O.2       1 <0>        -0.5024
     26 O6         -7.1464   -4.0702   -2.3167 O.3       1 <0>        -0.3463
     27 C17        -8.0422   -5.0740   -1.8350 C.3       1 <0>         0.0329
     28 N4         -4.5857   -2.0758    0.3506 N.am      1 <0>        -0.7180
     29 C18        -5.2574   -0.9081    0.3908 C.2       1 <0>         0.6509
     30 O7         -5.3188   -0.2080   -0.6004 O.2       1 <0>        -0.5552
     31 O8         -5.8606   -0.5173    1.5294 O.3       1 <0>        -0.3479
     32 C19        -6.5547    0.7314    1.5002 C.3       1 <0>         0.1840
     33 C20        -7.1614    1.0006    2.8532 C.2       1 <0>         0.0070
     34 N5         -6.6331    1.6346    3.8702 N.2       1 <0>        -0.4863
     35 C21        -7.2946    1.7912    4.9995 C.2       1 <0>         0.0278
     36 C22        -8.5452    1.2659    5.0580 C.2       1 <0>        -0.2044
     37 S2         -8.6849    0.5658    3.4213 S.3       1 <0>         0.1541
     38 H1         -1.0125    1.7946   -1.1387 H         1 <0>         0.1100
     39 H2         -2.4672    0.9520   -1.7235 H         1 <0>         0.0861
     40 H3         -2.2398    1.2292    0.0199 H         1 <0>         0.0756
     41 H4         -0.5841   -0.6045   -1.7697 H         1 <0>         0.1404
     42 H5         -0.2028   -0.2473   -0.0681 H         1 <0>         0.1328
     43 H6         -1.9452   -3.4204    0.0850 H         1 <0>         0.1393
     44 H7         -0.6760   -2.8953   -1.0471 H         1 <0>         0.1661
     45 H8          0.5075   -1.7335    0.7537 H         1 <0>         0.1390
     46 H9          0.9974   -3.7141    2.2423 H         1 <0>         0.1355
     47 H10        -0.3698   -4.5624    1.4811 H         1 <0>         0.1248
     48 H11         3.1088   -6.7372   -0.8172 H         1 <0>         0.1112
     49 H12         2.1106   -5.6886   -1.8528 H         1 <0>         0.0661
     50 H13         3.5191   -5.0147   -0.9984 H         1 <0>         0.0681
     51 H14        -1.9264   -2.2146    2.3128 H         1 <0>         0.4095
     52 H15         0.6140   -0.6390    5.5210 H         1 <0>         0.1022
     53 H16         0.0219    0.8408    4.7286 H         1 <0>         0.0917
     54 H17        -0.7523   -1.4195    7.7285 H         1 <0>         0.1757
     55 H18        -3.5110    1.5909    8.8528 H         1 <0>         0.2236
     56 H19        -3.4449   -0.6116   -1.6408 H         1 <0>         0.1635
     57 H20        -2.4973   -1.9603   -2.3125 H         1 <0>         0.1547
     58 H21        -3.5648   -3.5312   -0.7622 H         1 <0>         0.1333
     59 H22        -5.6522   -1.7171   -2.0516 H         1 <0>         0.1424
     60 H23        -4.7142   -2.9585   -2.9161 H         1 <0>         0.1335
     61 H24        -7.4902   -5.9959   -1.6518 H         1 <0>         0.0659
     62 H25        -8.5022   -4.7353   -0.9067 H         1 <0>         0.0645
     63 H26        -8.8175   -5.2565   -2.5792 H         1 <0>         0.1099
     64 H27        -4.4732   -2.5988    1.1598 H         1 <0>         0.4233
     65 H28        -5.8560    1.5298    1.2500 H         1 <0>         0.1063
     66 H29        -7.3441    0.6909    0.7497 H         1 <0>         0.1028
     67 H30        -6.8615    2.3132    5.8400 H         1 <0>         0.1795
     68 H31        -9.2590    1.2729    5.8684 H         1 <0>         0.2047
     69 H32        -2.4001   -1.0816    0.4858 H         1 <0>         0.4158
@<TRIPOS>BOND
     1    1    2 1
     2    1   38 1
     3    1   39 1
     4    1   40 1
     5    2    3 1
     6    2   41 1
     7    2   42 1
     8    3    4 1
     9    3   21 1
    10    3   69 1
    11    4    5 1
    12    4   43 1
    13    4   44 1
    14    5    6 1
    15    5   11 1
    16    5   45 1
    17    6    7 1
    18    6   46 1
    19    6   47 1
    20    7    8 2
    21    7    9 1
    22    9   10 1
    23   10   48 1
    24   10   49 1
    25   10   50 1
    26   11   12 am
    27   11   51 1
    28   12   13 2
    29   12   14 1
    30   14   15 1
    31   15   16 1
    32   15   52 1
    33   15   53 1
    34   16   20 1
    35   16   17 2
    36   17   18 1
    37   17   54 1
    38   18   19 2
    39   19   20 1
    40   19   55 1
    41   21   22 1
    42   21   56 1
    43   21   57 1
    44   22   23 1
    45   22   28 1
    46   22   58 1
    47   23   24 1
    48   23   59 1
    49   23   60 1
    50   24   25 2
    51   24   26 1
    52   26   27 1
    53   27   61 1
    54   27   62 1
    55   27   63 1
    56   28   29 am
    57   28   64 1
    58   29   30 2
    59   29   31 1
    60   31   32 1
    61   32   33 1
    62   32   65 1
    63   32   66 1
    64   33   37 1
    65   33   34 2
    66   34   35 1
    67   35   36 2
    68   35   67 1
    69   36   37 1
    70   36   68 1
@<TRIPOS>MOLECULE
CHEMBL1081514
   68    69     0     0     0
SMALL
USER_CHARGES

@<TRIPOS>ATOM
      1 C1          0.8257    1.7517   -0.3154 C.3       1 <0>        -0.1438
      2 C2          0.5825    0.2565   -0.1011 C.3       1 <0>         0.0527
      3 N1          0.7824   -0.4587   -1.3685 N.3       1 <0>        -0.5248
      4 C3          0.2088   -1.8097   -1.3068 C.3       1 <0>         0.0330
      5 C4         -1.3128   -1.7125   -1.1798 C.3       1 <0>         0.1779
      6 C5         -1.9204   -3.1154   -1.2408 C.3       1 <0>        -0.1325
      7 C6         -1.5013   -3.8977   -0.0229 C.2       1 <0>         0.4661
      8 O1         -0.8912   -3.3515    0.8656 O.2       1 <0>        -0.5008
      9 O2         -1.8058   -5.2013    0.0750 O.3       1 <0>        -0.3527
     10 C7         -1.3774   -5.8807    1.2569 C.3       1 <0>         0.0331
     11 N2         -1.8438   -0.9022   -2.2787 N.am      1 <0>        -0.6844
     12 C8         -2.9773   -0.1936   -2.1069 C.2       1 <0>         0.6534
     13 O3         -3.5092   -0.1536   -1.0151 O.2       1 <0>        -0.5685
     14 O4         -3.5203    0.4698   -3.1450 O.3       1 <0>        -0.3592
     15 C9         -4.7220    1.2002   -2.8910 C.3       1 <0>         0.1828
     16 C10        -5.1789    1.8727   -4.1599 C.2       1 <0>        -0.2207
     17 C11        -6.0108    1.4175   -5.1314 C.2       1 <0>         0.0653
     18 N3         -6.2422    2.2255   -6.1467 N.2       1 <0>        -0.5195
     19 C12        -5.6928    3.4126   -6.2120 C.2       1 <0>         0.0306
     20 S1         -4.7822    3.4923   -4.7987 S.3       1 <0>         0.1459
     21 C13         2.2062   -0.5072   -1.7268 C.3       1 <0>         0.0288
     22 C14         2.3484   -0.8923   -3.2007 C.3       1 <0>         0.1896
     23 C15         3.8258   -0.8572   -3.5967 C.3       1 <0>        -0.1440
     24 C16         3.9755   -1.3275   -5.0206 C.2       1 <0>         0.4618
     25 O5          2.9947   -1.5757   -5.6811 O.2       1 <0>        -0.5019
     26 O6          5.1985   -1.4705   -5.5551 O.3       1 <0>        -0.3542
     27 C17         5.2659   -1.9201   -6.9099 C.3       1 <0>         0.0340
     28 N4          1.5985    0.0563   -4.0278 N.am      1 <0>        -0.6771
     29 C18         1.9574    1.3550   -4.0574 C.2       1 <0>         0.6608
     30 O7          2.8446    1.7569   -3.3309 O.2       1 <0>        -0.5708
     31 O8          1.3329    2.2072   -4.8920 O.3       1 <0>        -0.3591
     32 C19         1.7645    3.5693   -4.8707 C.3       1 <0>         0.1834
     33 C20         0.9579    4.3673   -5.8625 C.2       1 <0>         0.0329
     34 N5         -0.1660    5.0106   -5.6671 N.2       1 <0>        -0.4900
     35 C21        -0.7577    5.6699   -6.6432 C.2       1 <0>         0.0321
     36 C22        -0.1487    5.6504   -7.8564 C.2       1 <0>        -0.2197
     37 S2          1.2867    4.6542   -7.4880 S.3       1 <0>         0.1366
     38 H1          1.8719    1.9164   -0.5730 H         1 <0>         0.0578
     39 H2          0.1912    2.1106   -1.1258 H         1 <0>         0.0582
     40 H3          0.5873    2.2935    0.5999 H         1 <0>         0.0563
     41 H4          1.2820   -0.1223    0.6441 H         1 <0>         0.0378
     42 H5         -0.4387    0.1007    0.2469 H         1 <0>         0.0771
     43 H6          0.4635   -2.3545   -2.2159 H         1 <0>         0.0811
     44 H7          0.6126   -2.3367   -0.4423 H         1 <0>         0.0704
     45 H8         -1.5689   -1.2467   -0.2282 H         1 <0>         0.1118
     46 H9         -3.0074   -3.0397   -1.2677 H         1 <0>         0.1167
     47 H10        -1.5693   -3.6246   -2.1383 H         1 <0>         0.1125
     48 H11        -1.6872   -6.9246    1.2084 H         1 <0>         0.1036
     49 H12        -0.2914   -5.8271    1.3333 H         1 <0>         0.0619
     50 H13        -1.8269   -5.4086    2.1305 H         1 <0>         0.0625
     51 H14        -1.3795   -0.8756   -3.1300 H         1 <0>         0.4104
     52 H15        -5.4963    0.5163   -2.5432 H         1 <0>         0.0962
     53 H16        -4.5340    1.9548   -2.1272 H         1 <0>         0.0867
     54 H17        -6.4621    0.4379   -5.0750 H         1 <0>         0.1747
     55 H18        -5.8014    4.1607   -6.9833 H         1 <0>         0.2197
     56 H19         2.6558    0.4720   -1.5621 H         1 <0>         0.1101
     57 H20         2.7117   -1.2479   -1.1073 H         1 <0>         0.0517
     58 H21         1.9551   -1.8973   -3.3532 H         1 <0>         0.1034
     59 H22         4.2013    0.1624   -3.5094 H         1 <0>         0.1349
     60 H23         4.3947   -1.5117   -2.9362 H         1 <0>         0.1185
     61 H24         6.3091   -1.9926   -7.2172 H         1 <0>         0.1025
     62 H25         4.7941   -2.8993   -6.9916 H         1 <0>         0.0612
     63 H26         4.7457   -1.2113   -7.5542 H         1 <0>         0.0605
     64 H27         0.8436   -0.2504   -4.5542 H         1 <0>         0.4113
     65 H28         1.6212    3.9803   -3.8714 H         1 <0>         0.1027
     66 H29         2.8204    3.6201   -5.1365 H         1 <0>         0.0950
     67 H30        -1.6847    6.2010   -6.4851 H         1 <0>         0.1759
     68 H31        -0.4476    6.1124   -8.7857 H         1 <0>         0.2002
@<TRIPOS>BOND
     1    1    2 1
     2    1   38 1
     3    1   39 1
     4    1   40 1
     5    2    3 1
     6    2   41 1
     7    2   42 1
     8    3    4 1
     9    3   21 1
    10    4    5 1
    11    4   43 1
    12    4   44 1
    13    5    6 1
    14    5   11 1
    15    5   45 1
    16    6    7 1
    17    6   46 1
    18    6   47 1
    19    7    8 2
    20    7    9 1
    21    9   10 1
    22   10   48 1
    23   10   49 1
    24   10   50 1
    25   11   12 am
    26   11   51 1
    27   12   13 2
    28   12   14 1
    29   14   15 1
    30   15   16 1
    31   15   52 1
    32   15   53 1
    33   16   20 1
    34   16   17 2
    35   17   18 1
    36   17   54 1
    37   18   19 2
    38   19   20 1
    39   19   55 1
    40   21   22 1
    41   21   56 1
    42   21   57 1
    43   22   23 1
    44   22   28 1
    45   22   58 1
    46   23   24 1
    47   23   59 1
    48   23   60 1
    49   24   25 2
    50   24   26 1
    51   26   27 1
    52   27   61 1
    53   27   62 1
    54   27   63 1
    55   28   29 am
    56   28   64 1
    57   29   30 2
    58   29   31 1
    59   31   32 1
    60   32   33 1
    61   32   65 1
    62   32   66 1
    63   33   37 1
    64   33   34 2
    65   34   35 1
    66   35   36 2
    67   35   67 1
    68   36   37 1
    69   36   68 1
@<TRIPOS>MOLECULE
CHEMBL1081514
   69    70     0     0     0
SMALL
USER_CHARGES

@<TRIPOS>ATOM
      1 C1         -0.0089   -1.0433   -0.8984 C.3       1 <0>        -0.1978
      2 C2         -0.1856   -0.2718    0.4109 C.3       1 <0>        -0.0218
      3 N1         -1.5915   -0.3369    0.8318 N.4       1 <0>        -0.3827
      4 C3         -1.9657   -1.7366    1.0743 C.3       1 <0>        -0.0319
      5 C4         -1.1632   -2.2813    2.2577 C.3       1 <0>         0.1507
      6 C5         -1.6408   -3.6965    2.5896 C.3       1 <0>        -0.1325
      7 C6         -1.2768   -4.6270    1.4614 C.2       1 <0>         0.4662
      8 O1         -0.5946   -4.2297    0.5468 O.2       1 <0>        -0.5096
      9 O2         -1.7106   -5.8972    1.4727 O.3       1 <0>        -0.3426
     10 C7         -1.3275   -6.7233    0.3714 C.3       1 <0>         0.0310
     11 N2         -1.3600   -1.4139    3.4218 N.am      1 <0>        -0.7277
     12 C8         -0.3924   -1.3071    4.3539 C.2       1 <0>         0.6534
     13 O3          0.6777   -1.8571    4.1844 O.2       1 <0>        -0.5423
     14 O4         -0.6116   -0.5911    5.4728 O.3       1 <0>        -0.3528
     15 C9          0.4580   -0.5205    6.4178 C.3       1 <0>         0.1842
     16 C10         0.0325    0.3167    7.5964 C.2       1 <0>        -0.2422
     17 C11        -0.5716   -0.0580    8.7531 C.2       1 <0>         0.0787
     18 N3         -0.8346    0.8945    9.6254 N.2       1 <0>        -0.5199
     19 C12        -0.5258    2.1441    9.3839 C.2       1 <0>         0.0459
     20 S1          0.1902    2.0754    7.8622 S.3       1 <0>         0.1468
     21 C13        -2.4454    0.2221   -0.2248 C.3       1 <0>        -0.0357
     22 C14        -2.1469    1.7141   -0.3857 C.3       1 <0>         0.1545
     23 C15        -3.0802    2.3100   -1.4414 C.3       1 <0>        -0.1340
     24 C16        -2.7440    1.7329   -2.7924 C.2       1 <0>         0.4699
     25 O5         -1.8757    0.8988   -2.8939 O.2       1 <0>        -0.5137
     26 O6         -3.4091    2.1455   -3.8828 O.3       1 <0>        -0.3411
     27 C17        -3.0383    1.5559   -5.1306 C.3       1 <0>         0.0310
     28 N4         -2.3589    2.3953    0.8939 N.am      1 <0>        -0.7263
     29 C18        -1.7693    3.5840    1.1303 C.2       1 <0>         0.6570
     30 O7         -0.9900    4.0472    0.3212 O.2       1 <0>        -0.5404
     31 O8         -2.0439    4.2582    2.2629 O.3       1 <0>        -0.3515
     32 C19        -1.3832    5.5116    2.4481 C.3       1 <0>         0.1833
     33 C20        -1.8108    6.1158    3.7608 C.2       1 <0>         0.0109
     34 N5         -1.2632    5.9681    4.9413 N.2       1 <0>        -0.4870
     35 C21        -1.7571    6.5671    6.0064 C.2       1 <0>         0.0284
     36 C22        -2.8567    7.3418    5.8222 C.2       1 <0>        -0.2060
     37 S2         -3.1038    7.1498    4.0641 S.3       1 <0>         0.1517
     38 H1          1.0208   -0.9448   -1.2421 H         1 <0>         0.1079
     39 H2         -0.2377   -2.0962   -0.7335 H         1 <0>         0.0912
     40 H3         -0.6839   -0.6386   -1.6525 H         1 <0>         0.0957
     41 H4          0.4453   -0.7146    1.1816 H         1 <0>         0.1333
     42 H5          0.1008    0.7692    0.2608 H         1 <0>         0.1320
     43 H6         -3.0305   -1.7942    1.3001 H         1 <0>         0.1444
     44 H7         -1.7501   -2.3296    0.1855 H         1 <0>         0.1658
     45 H8         -0.1049   -2.3066    1.9982 H         1 <0>         0.1387
     46 H9         -1.1625   -4.0352    3.5086 H         1 <0>         0.1351
     47 H10        -2.7226   -3.6929    2.7230 H         1 <0>         0.1248
     48 H11        -1.7432   -7.7221    0.5046 H         1 <0>         0.1109
     49 H12        -1.7070   -6.2925   -0.5552 H         1 <0>         0.0660
     50 H13        -0.2403   -6.7855    0.3247 H         1 <0>         0.0682
     51 H14        -2.1867   -0.9165    3.5217 H         1 <0>         0.4108
     52 H15         0.7094   -1.5252    6.7576 H         1 <0>         0.1021
     53 H16         1.3301   -0.0675    5.9463 H         1 <0>         0.0917
     54 H17        -0.8254   -1.0892    8.9493 H         1 <0>         0.1758
     55 H18        -0.6872    3.0084   10.0110 H         1 <0>         0.2236
     56 H19        -2.2442   -0.2921   -1.1646 H         1 <0>         0.1725
     57 H20        -3.4928    0.0882    0.0457 H         1 <0>         0.1443
     58 H21        -1.1116    1.8456   -0.7002 H         1 <0>         0.1331
     59 H22        -4.1133    2.0694   -1.1905 H         1 <0>         0.1267
     60 H23        -2.9553    3.3925   -1.4675 H         1 <0>         0.1351
     61 H24        -1.9875    1.7635   -5.3325 H         1 <0>         0.0683
     62 H25        -3.1932    0.4780   -5.0835 H         1 <0>         0.0665
     63 H26        -3.6514    1.9765   -5.9276 H         1 <0>         0.1111
     64 H27        -2.9235    1.9907    1.5710 H         1 <0>         0.4100
     65 H28        -0.3043    5.3563    2.4539 H         1 <0>         0.1074
     66 H29        -1.6488    6.1861    1.6341 H         1 <0>         0.1038
     67 H30        -1.3079    6.4470    6.9811 H         1 <0>         0.1792
     68 H31        -3.4228    7.9176    6.5394 H         1 <0>         0.2043
     69 H32        -1.7137    0.1957    1.6800 H         1 <0>         0.4155
@<TRIPOS>BOND
     1    1    2 1
     2    1   38 1
     3    1   39 1
     4    1   40 1
     5    2    3 1
     6    2   41 1
     7    2   42 1
     8    3    4 1
     9    3   21 1
    10    3   69 1
    11    4    5 1
    12    4   43 1
    13    4   44 1
    14    5    6 1
    15    5   11 1
    16    5   45 1
    17    6    7 1
    18    6   46 1
    19    6   47 1
    20    7    8 2
    21    7    9 1
    22    9   10 1
    23   10   48 1
    24   10   49 1
    25   10   50 1
    26   11   12 am
    27   11   51 1
    28   12   13 2
    29   12   14 1
    30   14   15 1
    31   15   16 1
    32   15   52 1
    33   15   53 1
    34   16   20 1
    35   16   17 2
    36   17   18 1
    37   17   54 1
    38   18   19 2
    39   19   20 1
    40   19   55 1
    41   21   22 1
    42   21   56 1
    43   21   57 1
    44   22   23 1
    45   22   28 1
    46   22   58 1
    47   23   24 1
    48   23   59 1
    49   23   60 1
    50   24   25 2
    51   24   26 1
    52   26   27 1
    53   27   61 1
    54   27   62 1
    55   27   63 1
    56   28   29 am
    57   28   64 1
    58   29   30 2
    59   29   31 1
    60   31   32 1
    61   32   33 1
    62   32   65 1
    63   32   66 1
    64   33   37 1
    65   33   34 2
    66   34   35 1
    67   35   36 2
    68   35   67 1
    69   36   37 1
    70   36   68 1
@<TRIPOS>MOLECULE
CHEMBL1081514
   68    69     0     0     0
SMALL
USER_CHARGES

@<TRIPOS>ATOM
      1 C1          0.7100   -1.1839    0.4827 C.3       1 <0>        -0.2002
      2 C2         -0.1736   -0.2742   -0.3731 C.3       1 <0>         0.0481
      3 N1          0.1590   -0.4619   -1.7916 N.3       1 <0>        -0.5260
      4 C3         -0.1309   -1.8358   -2.2230 C.3       1 <0>         0.0339
      5 C4         -1.6403   -2.0800   -2.1676 C.3       1 <0>         0.1784
      6 C5         -1.9537   -3.4663   -2.7340 C.3       1 <0>        -0.1318
      7 C6         -1.3883   -4.5222   -1.8194 C.2       1 <0>         0.4651
      8 O1         -0.8983   -4.2055   -0.7613 O.2       1 <0>        -0.4988
      9 O2         -1.4291   -5.8145   -2.1802 O.3       1 <0>        -0.3531
     10 C7         -0.8749   -6.7614   -1.2647 C.3       1 <0>         0.0332
     11 N2         -2.3293   -1.0605   -2.9626 N.am      1 <0>        -0.6853
     12 C8         -3.5840   -0.6886   -2.6401 C.2       1 <0>         0.6524
     13 O3         -4.1100   -1.1306   -1.6379 O.2       1 <0>        -0.5684
     14 O4         -4.2545    0.1726   -3.4283 O.3       1 <0>        -0.3595
     15 C9         -5.5801    0.5231   -3.0259 C.3       1 <0>         0.1826
     16 C10        -6.1687    1.4888   -4.0219 C.2       1 <0>        -0.2228
     17 C11        -6.8916    1.2433   -5.1446 C.2       1 <0>         0.0647
     18 N3         -7.2868    2.2901   -5.8414 N.2       1 <0>        -0.5200
     19 C12        -6.9936    3.5097   -5.4648 C.2       1 <0>         0.0284
     20 S1         -6.1154    3.2734   -4.0485 S.3       1 <0>         0.1531
     21 C13         1.5615   -0.1125   -2.0541 C.3       1 <0>         0.0304
     22 C14         1.7655    1.3862   -1.8236 C.3       1 <0>         0.1820
     23 C15         3.2141    1.7591   -2.1453 C.3       1 <0>        -0.1329
     24 C16         4.1334    1.1182   -1.1378 C.2       1 <0>         0.4665
     25 O5          3.6809    0.3997   -0.2783 O.2       1 <0>        -0.4995
     26 O6          5.4551    1.3457   -1.1952 O.3       1 <0>        -0.3525
     27 C17         6.2669    0.7058   -0.2086 C.3       1 <0>         0.0333
     28 N4          0.8618    2.1417   -2.6946 N.am      1 <0>        -0.6852
     29 C18         0.5418    3.4153   -2.3913 C.2       1 <0>         0.6538
     30 O7          0.9281    3.9072   -1.3495 O.2       1 <0>        -0.5666
     31 O8         -0.2059    4.1426   -3.2426 O.3       1 <0>        -0.3579
     32 C19        -0.5069    5.4853   -2.8571 C.3       1 <0>         0.1817
     33 C20        -1.3458    6.1385   -3.9251 C.2       1 <0>         0.0318
     34 N5         -2.6510    6.1700   -4.0288 N.2       1 <0>        -0.4890
     35 C21        -3.2448    6.7876   -5.0305 C.2       1 <0>         0.0318
     36 C22        -2.4419    7.3873   -5.9464 C.2       1 <0>        -0.2190
     37 S2         -0.8327    7.0106   -5.2701 S.3       1 <0>         0.1391
     38 H1          0.4856   -2.2262    0.2560 H         1 <0>         0.0647
     39 H2          1.7586   -0.9822    0.2639 H         1 <0>         0.0711
     40 H3          0.5154   -0.9915    1.5377 H         1 <0>         0.0590
     41 H4         -1.2213   -0.5265   -0.2091 H         1 <0>         0.0768
     42 H5         -0.0023    0.7655   -0.0942 H         1 <0>         0.0756
     43 H6          0.2230   -1.9784   -3.2440 H         1 <0>         0.0820
     44 H7          0.3754   -2.5388   -1.5614 H         1 <0>         0.0758
     45 H8         -1.9796   -2.0249   -1.1333 H         1 <0>         0.1116
     46 H9         -3.0338   -3.5920   -2.8101 H         1 <0>         0.1162
     47 H10        -1.5060   -3.5646   -3.7229 H         1 <0>         0.1123
     48 H11        -0.9721   -7.7656   -1.6774 H         1 <0>         0.1033
     49 H12         0.1791   -6.5358   -1.1023 H         1 <0>         0.0617
     50 H13        -1.4089   -6.7052   -0.3161 H         1 <0>         0.0624
     51 H14        -1.8826   -0.6531   -3.7211 H         1 <0>         0.4117
     52 H15        -6.1962   -0.3751   -2.9830 H         1 <0>         0.0959
     53 H16        -5.5495    0.9900   -2.0415 H         1 <0>         0.0866
     54 H17        -7.1315    0.2365   -5.4528 H         1 <0>         0.1743
     55 H18        -7.2557    4.4413   -5.9442 H         1 <0>         0.2192
     56 H19         2.2082   -0.6750   -1.3808 H         1 <0>         0.0837
     57 H20         1.8101   -0.3585   -3.0865 H         1 <0>         0.0820
     58 H21         1.5513    1.6261   -0.7821 H         1 <0>         0.1062
     59 H22         3.4670    1.4052   -3.1447 H         1 <0>         0.1138
     60 H23         3.3282    2.8424   -2.1038 H         1 <0>         0.1160
     61 H24         7.3115    0.9730   -0.3686 H         1 <0>         0.1033
     62 H25         5.9566    1.0315    0.7843 H         1 <0>         0.0626
     63 H26         6.1520   -0.3752   -0.2888 H         1 <0>         0.0617
     64 H27         0.4937    1.7254   -3.4896 H         1 <0>         0.4131
     65 H28        -1.0574    5.4785   -1.9163 H         1 <0>         0.1031
     66 H29         0.4206    6.0439   -2.7313 H         1 <0>         0.0976
     67 H30        -4.3208    6.8150   -5.1188 H         1 <0>         0.1748
     68 H31        -2.7038    7.9417   -6.8354 H         1 <0>         0.2003
@<TRIPOS>BOND
     1    1    2 1
     2    1   38 1
     3    1   39 1
     4    1   40 1
     5    2    3 1
     6    2   41 1
     7    2   42 1
     8    3    4 1
     9    3   21 1
    10    4    5 1
    11    4   43 1
    12    4   44 1
    13    5    6 1
    14    5   11 1
    15    5   45 1
    16    6    7 1
    17    6   46 1
    18    6   47 1
    19    7    8 2
    20    7    9 1
    21    9   10 1
    22   10   48 1
    23   10   49 1
    24   10   50 1
    25   11   12 am
    26   11   51 1
    27   12   13 2
    28   12   14 1
    29   14   15 1
    30   15   16 1
    31   15   52 1
    32   15   53 1
    33   16   20 1
    34   16   17 2
    35   17   18 1
    36   17   54 1
    37   18   19 2
    38   19   20 1
    39   19   55 1
    40   21   22 1
    41   21   56 1
    42   21   57 1
    43   22   23 1
    44   22   28 1
    45   22   58 1
    46   23   24 1
    47   23   59 1
    48   23   60 1
    49   24   25 2
    50   24   26 1
    51   26   27 1
    52   27   61 1
    53   27   62 1
    54   27   63 1
    55   28   29 am
    56   28   64 1
    57   29   30 2
    58   29   31 1
    59   31   32 1
    60   32   33 1
    61   32   65 1
    62   32   66 1
    63   33   37 1
    64   33   34 2
    65   34   35 1
    66   35   36 2
    67   35   67 1
    68   36   37 1
    69   36   68 1
@<TRIPOS>MOLECULE
CHEMBL1081514
   69    70     0     0     0
SMALL
USER_CHARGES

@<TRIPOS>ATOM
      1 C1         -1.6719    2.2556    1.9243 C.3       1 <0>        -0.1853
      2 C2         -1.3234    0.7904    2.1937 C.3       1 <0>        -0.0327
      3 N1         -2.3315   -0.0757    1.5679 N.4       1 <0>        -0.3773
      4 C3         -2.0161   -1.4813    1.8558 C.3       1 <0>        -0.0438
      5 C4         -2.2203   -1.7547    3.3472 C.3       1 <0>         0.1618
      6 C5         -2.0731   -3.2537    3.6158 C.3       1 <0>        -0.1410
      7 C6         -2.3624   -3.5347    5.0678 C.2       1 <0>         0.4627
      8 O1         -2.7535   -2.6473    5.7886 O.2       1 <0>        -0.5022
      9 O2         -2.1857   -4.7708    5.5604 O.3       1 <0>        -0.3464
     10 C7         -2.4793   -4.9654    6.9453 C.3       1 <0>         0.0327
     11 N2         -1.2167   -1.0192    4.1205 N.am      1 <0>        -0.7139
     12 C8          0.0930   -1.2920    3.9567 C.2       1 <0>         0.6501
     13 O3          0.4476   -2.0769    3.0996 O.2       1 <0>        -0.5562
     14 O4          1.0084   -0.6949    4.7430 O.3       1 <0>        -0.3514
     15 C9          2.3784   -1.0308    4.5139 C.3       1 <0>         0.1847
     16 C10         3.2502   -0.2715    5.4806 C.2       1 <0>        -0.2433
     17 C11         3.6786   -0.6212    6.7205 C.2       1 <0>         0.0814
     18 N3          4.4427    0.2454    7.3550 N.2       1 <0>        -0.5194
     19 C12         4.7714    1.3905    6.8110 C.2       1 <0>         0.0525
     20 S1          4.0124    1.3342    5.3098 S.3       1 <0>         0.1355
     21 C13        -2.3278    0.1393    0.1148 C.3       1 <0>        -0.0408
     22 C14        -3.4791   -0.6436   -0.5196 C.3       1 <0>         0.1597
     23 C15        -3.5558   -0.3178   -2.0126 C.3       1 <0>        -0.1409
     24 C16        -4.6126   -1.1750   -2.6601 C.2       1 <0>         0.4631
     25 O5         -5.2962   -1.9058   -1.9830 O.2       1 <0>        -0.5023
     26 O6         -4.7945   -1.1266   -3.9892 O.3       1 <0>        -0.3468
     27 C17        -5.8138   -1.9660   -4.5354 C.3       1 <0>         0.0328
     28 N4         -4.7391   -0.2691    0.1273 N.am      1 <0>        -0.7162
     29 C18        -5.1599    1.0109    0.0928 C.2       1 <0>         0.6499
     30 O7         -4.4535    1.8696   -0.3972 O.2       1 <0>        -0.5575
     31 O8         -6.3628    1.3379    0.6013 O.3       1 <0>        -0.3486
     32 C19        -6.7447    2.7132    0.5312 C.3       1 <0>         0.1845
     33 C20        -8.1103    2.8872    1.1443 C.2       1 <0>         0.0062
     34 N5         -8.4149    3.1537    2.3899 N.2       1 <0>        -0.4894
     35 C21        -9.6685    3.2776    2.7780 C.2       1 <0>         0.0275
     36 C22       -10.6254    3.1165    1.8284 C.2       1 <0>        -0.2038
     37 S2         -9.6135    2.7937    0.3930 S.3       1 <0>         0.1545
     38 H1         -0.9875    2.8994    2.4768 H         1 <0>         0.1067
     39 H2         -1.5818    2.4603    0.8575 H         1 <0>         0.0848
     40 H3         -2.6946    2.4511    2.2466 H         1 <0>         0.0782
     41 H4         -0.3422    0.5673    1.7747 H         1 <0>         0.1292
     42 H5         -1.3084    0.6123    3.2689 H         1 <0>         0.1421
     43 H6         -2.6738   -2.1276    1.2745 H         1 <0>         0.1472
     44 H7         -0.9790   -1.6831    1.5881 H         1 <0>         0.1636
     45 H8         -3.2175   -1.4288    3.6432 H         1 <0>         0.1333
     46 H9         -2.7763   -3.8054    2.9918 H         1 <0>         0.1339
     47 H10        -1.0558   -3.5667    3.3808 H         1 <0>         0.1404
     48 H11        -2.2946   -6.0057    7.2132 H         1 <0>         0.1099
     49 H12        -1.8422   -4.3167    7.5464 H         1 <0>         0.0643
     50 H13        -3.5252   -4.7222    7.1326 H         1 <0>         0.0661
     51 H14        -1.4947   -0.3358    4.7502 H         1 <0>         0.4252
     52 H15         2.5195   -2.1016    4.6613 H         1 <0>         0.1014
     53 H16         2.6517   -0.7655    3.4927 H         1 <0>         0.0917
     54 H17         3.4056   -1.5661    7.1667 H         1 <0>         0.1756
     55 H18         5.3846    2.1779    7.2237 H         1 <0>         0.2255
     56 H19        -2.4513    1.2016   -0.0957 H         1 <0>         0.1643
     57 H20        -1.3812   -0.2058   -0.3011 H         1 <0>         0.1511
     58 H21        -3.3073   -1.7120   -0.3892 H         1 <0>         0.1343
     59 H22        -3.8111    0.7339   -2.1423 H         1 <0>         0.1388
     60 H23        -2.5906   -0.5174   -2.4780 H         1 <0>         0.1330
     61 H24        -5.5870   -3.0077   -4.3086 H         1 <0>         0.0660
     62 H25        -6.7763   -1.7002   -4.0982 H         1 <0>         0.0644
     63 H26        -5.8558   -1.8303   -5.6161 H         1 <0>         0.1097
     64 H27        -5.2705   -0.9423    0.5803 H         1 <0>         0.4259
     65 H28        -6.0215    3.3193    1.0767 H         1 <0>         0.1061
     66 H29        -6.7715    3.0301   -0.5114 H         1 <0>         0.1030
     67 H30        -9.9228    3.4969    3.8044 H         1 <0>         0.1810
     68 H31       -11.7004    3.1719    1.9162 H         1 <0>         0.2053
     69 H32        -3.2432    0.1471    1.9385 H         1 <0>         0.4172
@<TRIPOS>BOND
     1    1    2 1
     2    1   38 1
     3    1   39 1
     4    1   40 1
     5    2    3 1
     6    2   41 1
     7    2   42 1
     8    3    4 1
     9    3   21 1
    10    3   69 1
    11    4    5 1
    12    4   43 1
    13    4   44 1
    14    5    6 1
    15    5   11 1
    16    5   45 1
    17    6    7 1
    18    6   46 1
    19    6   47 1
    20    7    8 2
    21    7    9 1
    22    9   10 1
    23   10   48 1
    24   10   49 1
    25   10   50 1
    26   11   12 am
    27   11   51 1
    28   12   13 2
    29   12   14 1
    30   14   15 1
    31   15   16 1
    32   15   52 1
    33   15   53 1
    34   16   20 1
    35   16   17 2
    36   17   18 1
    37   17   54 1
    38   18   19 2
    39   19   20 1
    40   19   55 1
    41   21   22 1
    42   21   56 1
    43   21   57 1
    44   22   23 1
    45   22   28 1
    46   22   58 1
    47   23   24 1
    48   23   59 1
    49   23   60 1
    50   24   25 2
    51   24   26 1
    52   26   27 1
    53   27   61 1
    54   27   62 1
    55   27   63 1
    56   28   29 am
    57   28   64 1
    58   29   30 2
    59   29   31 1
    60   31   32 1
    61   32   33 1
    62   32   65 1
    63   32   66 1
    64   33   37 1
    65   33   34 2
    66   34   35 1
    67   35   36 2
    68   35   67 1
    69   36   37 1
    70   36   68 1
@<TRIPOS>MOLECULE
CHEMBL1081514
   68    69     0     0     0
SMALL
USER_CHARGES

@<TRIPOS>ATOM
      1 C1          0.6163   -1.0745    0.1565 C.3       1 <0>        -0.1917
      2 C2          0.1186   -0.2070   -1.0014 C.3       1 <0>         0.0377
      3 N1          0.6966   -0.6933   -2.2613 N.3       1 <0>        -0.5189
      4 C3          0.2860   -2.0781   -2.5290 C.3       1 <0>         0.0309
      5 C4         -1.1385   -2.0888   -3.0872 C.3       1 <0>         0.1751
      6 C5         -1.5811   -3.5335   -3.3278 C.3       1 <0>        -0.1285
      7 C6         -2.9244   -3.5401   -4.0109 C.2       1 <0>         0.4501
      8 O1         -3.4206   -2.5014   -4.3781 O.2       1 <0>        -0.4780
      9 O2         -3.5696   -4.7000   -4.2115 O.3       1 <0>        -0.3585
     10 C7         -4.8385   -4.6319   -4.8651 C.3       1 <0>         0.0355
     11 N2         -2.0442   -1.4541   -2.1265 N.am      1 <0>        -0.7013
     12 C8         -2.7529   -0.3655   -2.4861 C.2       1 <0>         0.6573
     13 O3         -2.7092    0.0365   -3.6320 O.2       1 <0>        -0.5355
     14 O4         -3.5091    0.2765   -1.5758 O.3       1 <0>        -0.3687
     15 C9         -4.2336    1.4228   -2.0265 C.3       1 <0>         0.1842
     16 C10        -5.0169    2.0053   -0.8784 C.2       1 <0>        -0.2145
     17 C11        -4.6572    2.9541    0.0236 C.2       1 <0>         0.0652
     18 N3         -5.5509    3.2804    0.9359 N.2       1 <0>        -0.5181
     19 C12        -6.7309    2.7130    0.9676 C.2       1 <0>         0.0342
     20 S1         -6.6782    1.6447   -0.3320 S.3       1 <0>         0.1293
     21 C13         2.1605   -0.5709   -2.2507 C.3       1 <0>         0.0309
     22 C14         2.6953   -0.7229   -3.6761 C.3       1 <0>         0.1885
     23 C15         4.2027   -0.4615   -3.6859 C.3       1 <0>        -0.1420
     24 C16         4.7569   -0.7679   -5.0534 C.2       1 <0>         0.4611
     25 O5          4.0113   -1.0810   -5.9511 O.2       1 <0>        -0.5014
     26 O6          6.0788   -0.6929   -5.2741 O.3       1 <0>        -0.3544
     27 C17         6.5343   -0.9966   -6.5941 C.3       1 <0>         0.0337
     28 N4          2.0268    0.2409   -4.5539 N.am      1 <0>        -0.6770
     29 C18         2.1553    1.5628   -4.3249 C.2       1 <0>         0.6624
     30 O7          2.7469    1.9538   -3.3382 O.2       1 <0>        -0.5741
     31 O8          1.6281    2.4501   -5.1895 O.3       1 <0>        -0.3584
     32 C19         1.8021    3.8353   -4.8842 C.3       1 <0>         0.1838
     33 C20         1.1507    4.6714   -5.9555 C.2       1 <0>         0.0336
     34 N5         -0.0784    5.1213   -6.0016 N.2       1 <0>        -0.4920
     35 C21        -0.5055    5.8473   -7.0154 C.2       1 <0>         0.0322
     36 C22         0.3862    6.1056   -8.0061 C.2       1 <0>        -0.2195
     37 S2          1.8285    5.2596   -7.3795 S.3       1 <0>         0.1355
     38 H1          0.2219   -2.0850    0.0490 H         1 <0>         0.0558
     39 H2          1.7058   -1.1065    0.1443 H         1 <0>         0.0572
     40 H3          0.2759   -0.6501    1.1010 H         1 <0>         0.0622
     41 H4         -0.9686   -0.2620   -1.0553 H         1 <0>         0.0909
     42 H5          0.4224    0.8269   -0.8374 H         1 <0>         0.0734
     43 H6          0.9645   -2.5242   -3.2561 H         1 <0>         0.0900
     44 H7          0.3176   -2.6519   -1.6028 H         1 <0>         0.0556
     45 H8         -1.1641   -1.5394   -4.0283 H         1 <0>         0.1254
     46 H9         -0.8496   -4.0372   -3.9597 H         1 <0>         0.1230
     47 H10        -1.6564   -4.0541   -2.3731 H         1 <0>         0.1089
     48 H11        -5.2505   -5.6361   -4.9642 H         1 <0>         0.1014
     49 H12        -5.5183   -4.0167   -4.2756 H         1 <0>         0.0588
     50 H13        -4.7146   -4.1908   -5.8542 H         1 <0>         0.0608
     51 H14        -2.1340   -1.8173   -1.2315 H         1 <0>         0.4018
     52 H15        -3.5346    2.1686   -2.4050 H         1 <0>         0.0968
     53 H16        -4.9186    1.1299   -2.8222 H         1 <0>         0.0854
     54 H17        -3.6833    3.4200   -0.0048 H         1 <0>         0.1756
     55 H18        -7.5426    2.8909    1.6574 H         1 <0>         0.2210
     56 H19         2.4405    0.4073   -1.8600 H         1 <0>         0.1070
     57 H20         2.5857   -1.3501   -1.6181 H         1 <0>         0.0522
     58 H21         2.4997   -1.7346   -4.0316 H         1 <0>         0.1043
     59 H22         4.3917    0.5842   -3.4432 H         1 <0>         0.1317
     60 H23         4.6869   -1.0993   -2.9464 H         1 <0>         0.1188
     61 H24         7.6191   -0.8982   -6.6357 H         1 <0>         0.1025
     62 H25         6.2521   -2.0180   -6.8498 H         1 <0>         0.0613
     63 H26         6.0793   -0.3055   -7.3035 H         1 <0>         0.0607
     64 H27         1.4917   -0.0724   -5.2998 H         1 <0>         0.4140
     65 H28         1.3417    4.0557   -3.9212 H         1 <0>         0.1021
     66 H29         2.8663    4.0666   -4.8397 H         1 <0>         0.0953
     67 H30        -1.5185    6.2195   -7.0564 H         1 <0>         0.1767
     68 H31         0.2594    6.6695   -8.9185 H         1 <0>         0.2007
@<TRIPOS>BOND
     1    1    2 1
     2    1   38 1
     3    1   39 1
     4    1   40 1
     5    2    3 1
     6    2   41 1
     7    2   42 1
     8    3    4 1
     9    3   21 1
    10    4    5 1
    11    4   43 1
    12    4   44 1
    13    5    6 1
    14    5   11 1
    15    5   45 1
    16    6    7 1
    17    6   46 1
    18    6   47 1
    19    7    8 2
    20    7    9 1
    21    9   10 1
    22   10   48 1
    23   10   49 1
    24   10   50 1
    25   11   12 am
    26   11   51 1
    27   12   13 2
    28   12   14 1
    29   14   15 1
    30   15   16 1
    31   15   52 1
    32   15   53 1
    33   16   20 1
    34   16   17 2
    35   17   18 1
    36   17   54 1
    37   18   19 2
    38   19   20 1
    39   19   55 1
    40   21   22 1
    41   21   56 1
    42   21   57 1
    43   22   23 1
    44   22   28 1
    45   22   58 1
    46   23   24 1
    47   23   59 1
    48   23   60 1
    49   24   25 2
    50   24   26 1
    51   26   27 1
    52   27   61 1
    53   27   62 1
    54   27   63 1
    55   28   29 am
    56   28   64 1
    57   29   30 2
    58   29   31 1
    59   31   32 1
    60   32   33 1
    61   32   65 1
    62   32   66 1
    63   33   37 1
    64   33   34 2
    65   34   35 1
    66   35   36 2
    67   35   67 1
    68   36   37 1
    69   36   68 1
@<TRIPOS>MOLECULE
CHEMBL1081514
   69    70     0     0     0
SMALL
USER_CHARGES

@<TRIPOS>ATOM
      1 C1          0.4989   -0.3459   -1.9996 C.3       1 <0>        -0.1860
      2 C2         -0.3667   -0.3783   -0.7383 C.3       1 <0>        -0.0363
      3 N1         -1.6583   -1.0064   -1.0468 N.4       1 <0>        -0.3803
      4 C3         -1.4291   -2.3118   -1.6803 C.3       1 <0>        -0.0320
      5 C4         -0.8923   -3.2965   -0.6395 C.3       1 <0>         0.1451
      6 C5         -0.7404   -4.6793   -1.2764 C.3       1 <0>        -0.1259
      7 C6         -0.3625   -5.6817   -0.2165 C.2       1 <0>         0.4504
      8 O1         -0.3441   -5.3536    0.9462 O.2       1 <0>        -0.4784
      9 O2         -0.0465   -6.9391   -0.5642 O.3       1 <0>        -0.3508
     10 C7          0.3018   -7.8362    0.4922 C.3       1 <0>         0.0346
     11 N2          0.4119   -2.8348   -0.1576 N.am      1 <0>        -0.7242
     12 C8          0.6100   -2.6311    1.1598 C.2       1 <0>         0.6448
     13 O3         -0.2628   -2.9145    1.9564 O.2       1 <0>        -0.5241
     14 O4          1.7748   -2.1134    1.5933 O.3       1 <0>        -0.3583
     15 C9          1.9161   -1.9244    3.0027 C.3       1 <0>         0.1849
     16 C10         3.2738   -1.3406    3.2976 C.2       1 <0>        -0.2396
     17 C11         3.6591   -0.0416    3.3830 C.2       1 <0>         0.0764
     18 N3          4.9275    0.1884    3.6580 N.2       1 <0>        -0.5204
     19 C12         5.7745   -0.7939    3.8399 C.2       1 <0>         0.0473
     20 S1          4.8201   -2.1657    3.6392 S.3       1 <0>         0.1449
     21 C13        -2.4159   -0.1437   -1.9633 C.3       1 <0>        -0.0326
     22 C14        -2.7702    1.1656   -1.2554 C.3       1 <0>         0.1527
     23 C15        -3.6755    2.0052   -2.1590 C.3       1 <0>        -0.1336
     24 C16        -2.9006    2.4501   -3.3725 C.2       1 <0>         0.4693
     25 O5         -1.7441    2.1255   -3.5033 O.2       1 <0>        -0.5138
     26 O6         -3.4952    3.2069   -4.3082 O.3       1 <0>        -0.3417
     27 C17        -2.7009    3.5923   -5.4319 C.3       1 <0>         0.0312
     28 N4         -3.4697    0.8697   -0.0027 N.am      1 <0>        -0.7266
     29 C18        -3.4006    1.7349    1.0284 C.2       1 <0>         0.6571
     30 O7         -2.6858    2.7146    0.9525 O.2       1 <0>        -0.5422
     31 O8         -4.1235    1.5137    2.1425 O.3       1 <0>        -0.3507
     32 C19        -4.0018    2.4717    3.1957 C.3       1 <0>         0.1839
     33 C20        -4.8769    2.0611    4.3519 C.2       1 <0>         0.0101
     34 N5         -4.5692    1.3070    5.3775 N.2       1 <0>        -0.4886
     35 C21        -5.4519    1.0345    6.3178 C.2       1 <0>         0.0285
     36 C22        -6.6906    1.5709    6.1730 C.2       1 <0>        -0.2052
     37 S2         -6.4845    2.4664    4.6419 S.3       1 <0>         0.1513
     38 H1          1.4187    0.2019   -1.7950 H         1 <0>         0.1098
     39 H2          0.7421   -1.3652   -2.2995 H         1 <0>         0.0770
     40 H3         -0.0476    0.1485   -2.8027 H         1 <0>         0.0923
     41 H4          0.1411   -0.9531    0.0362 H         1 <0>         0.1374
     42 H5         -0.5327    0.6396   -0.3854 H         1 <0>         0.1310
     43 H6         -2.3679   -2.6884   -2.0865 H         1 <0>         0.1556
     44 H7         -0.7027   -2.2024   -2.4856 H         1 <0>         0.1505
     45 H8         -1.5884   -3.3563    0.1971 H         1 <0>         0.1412
     46 H9         -1.6843   -4.9738   -1.7350 H         1 <0>         0.1347
     47 H10         0.0385   -4.6449   -2.0382 H         1 <0>         0.1231
     48 H11         0.5343   -8.8160    0.0750 H         1 <0>         0.1087
     49 H12         1.1725   -7.4515    1.0233 H         1 <0>         0.0628
     50 H13        -0.5357   -7.9254    1.1841 H         1 <0>         0.0651
     51 H14         1.1329   -2.6758   -0.7868 H         1 <0>         0.4154
     52 H15         1.1428   -1.2429    3.3572 H         1 <0>         0.0985
     53 H16         1.8152   -2.8839    3.5099 H         1 <0>         0.0923
     54 H17         2.9585    0.7663    3.2322 H         1 <0>         0.1738
     55 H18         6.8286   -0.7374    4.0679 H         1 <0>         0.2250
     56 H19        -1.8103    0.0716   -2.8436 H         1 <0>         0.1679
     57 H20        -3.3312   -0.6516   -2.2672 H         1 <0>         0.1446
     58 H21        -1.8572    1.7205   -1.0394 H         1 <0>         0.1349
     59 H22        -4.5307    1.4069   -2.4732 H         1 <0>         0.1266
     60 H23        -4.0257    2.8798   -1.6108 H         1 <0>         0.1340
     61 H24        -1.8429    4.1706   -5.0892 H         1 <0>         0.0679
     62 H25        -2.3532    2.7008   -5.9538 H         1 <0>         0.0662
     63 H26        -3.3009    4.1994   -6.1098 H         1 <0>         0.1111
     64 H27        -3.9826    0.0510    0.0847 H         1 <0>         0.4125
     65 H28        -2.9638    2.5198    3.5249 H         1 <0>         0.1070
     66 H29        -4.3139    3.4513    2.8338 H         1 <0>         0.1041
     67 H30        -5.2012    0.4128    7.1645 H         1 <0>         0.1805
     68 H31        -7.5589    1.4833    6.8093 H         1 <0>         0.2049
     69 H32        -2.1826   -1.1337   -0.1942 H         1 <0>         0.4224
@<TRIPOS>BOND
     1    1    2 1
     2    1   38 1
     3    1   39 1
     4    1   40 1
     5    2    3 1
     6    2   41 1
     7    2   42 1
     8    3    4 1
     9    3   21 1
    10    3   69 1
    11    4    5 1
    12    4   43 1
    13    4   44 1
    14    5    6 1
    15    5   11 1
    16    5   45 1
    17    6    7 1
    18    6   46 1
    19    6   47 1
    20    7    8 2
    21    7    9 1
    22    9   10 1
    23   10   48 1
    24   10   49 1
    25   10   50 1
    26   11   12 am
    27   11   51 1
    28   12   13 2
    29   12   14 1
    30   14   15 1
    31   15   16 1
    32   15   52 1
    33   15   53 1
    34   16   20 1
    35   16   17 2
    36   17   18 1
    37   17   54 1
    38   18   19 2
    39   19   20 1
    40   19   55 1
    41   21   22 1
    42   21   56 1
    43   21   57 1
    44   22   23 1
    45   22   28 1
    46   22   58 1
    47   23   24 1
    48   23   59 1
    49   23   60 1
    50   24   25 2
    51   24   26 1
    52   26   27 1
    53   27   61 1
    54   27   62 1
    55   27   63 1
    56   28   29 am
    57   28   64 1
    58   29   30 2
    59   29   31 1
    60   31   32 1
    61   32   33 1
    62   32   65 1
    63   32   66 1
    64   33   37 1
    65   33   34 2
    66   34   35 1
    67   35   36 2
    68   35   67 1
    69   36   37 1
    70   36   68 1
@<TRIPOS>MOLECULE
CHEMBL1081514
   68    69     0     0     0
SMALL
USER_CHARGES

@<TRIPOS>ATOM
      1 C1          1.1317   -1.1364   -0.1775 C.3       1 <0>        -0.1939
      2 C2          0.6234    0.0893   -0.9393 C.3       1 <0>         0.0350
      3 N1          1.2301    0.1209   -2.2767 N.3       1 <0>        -0.5230
      4 C3          0.8993   -1.0938   -3.0338 C.3       1 <0>         0.0361
      5 C4         -0.5243   -0.9807   -3.5827 C.3       1 <0>         0.1747
      6 C5         -0.8773   -2.2556   -4.3514 C.3       1 <0>        -0.1279
      7 C6         -2.2135   -2.0816   -5.0263 C.2       1 <0>         0.4495
      8 O1         -2.7695   -1.0092   -4.9979 O.2       1 <0>        -0.4772
      9 O2         -2.7858   -3.1178   -5.6591 O.3       1 <0>        -0.3587
     10 C7         -4.0524   -2.8813   -6.2769 C.3       1 <0>         0.0355
     11 N2         -1.4634   -0.8042   -2.4722 N.am      1 <0>        -0.7022
     12 C8         -2.2563    0.2847   -2.4268 C.2       1 <0>         0.6566
     13 O3         -2.2567    1.0749   -3.3498 O.2       1 <0>        -0.5353
     14 O4         -3.0481    0.4968   -1.3586 O.3       1 <0>        -0.3686
     15 C9         -3.8623    1.6710   -1.3776 C.3       1 <0>         0.1844
     16 C10        -4.6737    1.7401   -0.1096 C.2       1 <0>        -0.2147
     17 C11        -4.3761    2.3238    1.0795 C.2       1 <0>         0.0656
     18 N3         -5.2811    2.2314    2.0334 N.2       1 <0>        -0.5177
     19 C12        -6.4144    1.6044    1.8392 C.2       1 <0>         0.0343
     20 S1         -6.2965    1.0838    0.2430 S.3       1 <0>         0.1289
     21 C13         2.6847    0.3077   -2.1907 C.3       1 <0>         0.0307
     22 C14         2.9895    1.7395   -1.7457 C.3       1 <0>         0.1810
     23 C15         4.4998    1.9788   -1.7965 C.3       1 <0>        -0.1327
     24 C16         5.1781    1.1309   -0.7515 C.2       1 <0>         0.4669
     25 O5          4.5247    0.3850   -0.0613 O.2       1 <0>        -0.5011
     26 O6          6.5083    1.2045   -0.5874 O.3       1 <0>        -0.3525
     27 C17         7.0845    0.3727    0.4216 C.3       1 <0>         0.0333
     28 N4          2.3152    2.6831   -2.6408 N.am      1 <0>        -0.6832
     29 C18         1.9434    3.8958   -2.1852 C.2       1 <0>         0.6560
     30 O7          2.0845    4.1730   -1.0106 O.2       1 <0>        -0.5691
     31 O8          1.4157    4.8002   -3.0316 O.3       1 <0>        -0.3570
     32 C19         1.0440    6.0651   -2.4804 C.3       1 <0>         0.1823
     33 C20         0.4767    6.9400   -3.5683 C.2       1 <0>         0.0325
     34 N5         -0.7698    7.0541   -3.9535 N.2       1 <0>        -0.4918
     35 C21        -1.1141    7.8701   -4.9298 C.2       1 <0>         0.0323
     36 C22        -0.1185    8.5840   -5.5150 C.2       1 <0>        -0.2190
     37 S2          1.2903    8.0129   -4.5782 S.3       1 <0>         0.1375
     38 H1          0.7870   -2.0425   -0.6757 H         1 <0>         0.0542
     39 H2          2.2214   -1.1252   -0.1569 H         1 <0>         0.0667
     40 H3          0.7487   -1.1146    0.8428 H         1 <0>         0.0617
     41 H4         -0.4611    0.0345   -1.0335 H         1 <0>         0.0899
     42 H5          0.8956    0.9938   -0.3953 H         1 <0>         0.0733
     43 H6          1.5997   -1.2084   -3.8610 H         1 <0>         0.0921
     44 H7          0.9676   -1.9611   -2.3771 H         1 <0>         0.0566
     45 H8         -0.5884   -0.1231   -4.2525 H         1 <0>         0.1261
     46 H9         -0.1128   -2.4498   -5.1036 H         1 <0>         0.1230
     47 H10        -0.9270   -3.0956   -3.6585 H         1 <0>         0.1087
     48 H11        -4.4021   -3.7982   -6.7513 H         1 <0>         0.1013
     49 H12        -4.7720   -2.5660   -5.5213 H         1 <0>         0.0588
     50 H13        -3.9494   -2.0994   -7.0293 H         1 <0>         0.0608
     51 H14        -1.5144   -1.4710   -1.7696 H         1 <0>         0.4021
     52 H15        -3.2262    2.5531   -1.4504 H         1 <0>         0.0963
     53 H16        -4.5326    1.6345   -2.2364 H         1 <0>         0.0856
     54 H17        -3.4405    2.8399    1.2367 H         1 <0>         0.1755
     55 H18        -7.2290    1.4604    2.5336 H         1 <0>         0.2210
     56 H19         3.0989   -0.3938   -1.4666 H         1 <0>         0.0822
     57 H20         3.1325    0.1279   -3.1680 H         1 <0>         0.0812
     58 H21         2.6323    1.8870   -0.7265 H         1 <0>         0.1073
     59 H22         4.8772    1.7103   -2.7832 H         1 <0>         0.1143
     60 H23         4.7077    3.0309   -1.6019 H         1 <0>         0.1151
     61 H24         8.1629    0.5292    0.4494 H         1 <0>         0.1033
     62 H25         6.6554    0.6268    1.3908 H         1 <0>         0.0624
     63 H26         6.8749   -0.6725    0.1942 H         1 <0>         0.0616
     64 H27         2.1363    2.4351   -3.5613 H         1 <0>         0.4136
     65 H28         0.2928    5.9167   -1.7046 H         1 <0>         0.1024
     66 H29         1.9221    6.5455   -2.0487 H         1 <0>         0.0976
     67 H30        -2.1411    7.9660   -5.2499 H         1 <0>         0.1768
     68 H31        -0.1660    9.3012   -6.3210 H         1 <0>         0.2009
@<TRIPOS>BOND
     1    1    2 1
     2    1   38 1
     3    1   39 1
     4    1   40 1
     5    2    3 1
     6    2   41 1
     7    2   42 1
     8    3    4 1
     9    3   21 1
    10    4    5 1
    11    4   43 1
    12    4   44 1
    13    5    6 1
    14    5   11 1
    15    5   45 1
    16    6    7 1
    17    6   46 1
    18    6   47 1
    19    7    8 2
    20    7    9 1
    21    9   10 1
    22   10   48 1
    23   10   49 1
    24   10   50 1
    25   11   12 am
    26   11   51 1
    27   12   13 2
    28   12   14 1
    29   14   15 1
    30   15   16 1
    31   15   52 1
    32   15   53 1
    33   16   20 1
    34   16   17 2
    35   17   18 1
    36   17   54 1
    37   18   19 2
    38   19   20 1
    39   19   55 1
    40   21   22 1
    41   21   56 1
    42   21   57 1
    43   22   23 1
    44   22   28 1
    45   22   58 1
    46   23   24 1
    47   23   59 1
    48   23   60 1
    49   24   25 2
    50   24   26 1
    51   26   27 1
    52   27   61 1
    53   27   62 1
    54   27   63 1
    55   28   29 am
    56   28   64 1
    57   29   30 2
    58   29   31 1
    59   31   32 1
    60   32   33 1
    61   32   65 1
    62   32   66 1
    63   33   37 1
    64   33   34 2
    65   34   35 1
    66   35   36 2
    67   35   67 1
    68   36   37 1
    69   36   68 1
@<TRIPOS>MOLECULE
CHEMBL252211
   63    66     0     0     0
SMALL
USER_CHARGES

@<TRIPOS>ATOM
      1 C1         -0.7954   -2.4017   -0.4625 C.3       1 <0>        -0.1433
      2 C2          0.5197   -1.7118   -0.0943 C.3       1 <0>        -0.2055
      3 C3          1.4679   -1.7478   -1.2945 C.3       1 <0>         0.1588
      4 H1          0.9626   -1.3438   -2.1717 H         1 <0>         0.0873
      5 C4          1.8952   -3.1932   -1.5682 C.3       1 <0>        -0.1292
      6 C5          2.9490   -3.2080   -2.6779 C.3       1 <0>        -0.1214
      7 C6          4.1793   -2.4180   -2.2259 C.3       1 <0>        -0.1257
      8 C7          3.7779   -0.9638   -1.9597 C.3       1 <0>         0.1954
      9 H2          3.4632   -0.4950   -2.8920 H         1 <0>         0.0895
     10 N1          2.6635   -0.9456   -1.0018 N.pl3     1 <0>        -0.9861
     11 S1          2.7552   -0.0421    0.3830 S.o2      1 <0>         2.6736
     12 O1          4.1100    0.3663    0.5126 O.2       1 <0>        -0.9332
     13 O2          1.6809    0.8868    0.3337 O.2       1 <0>        -0.9514
     14 C8          2.4238   -1.1239    1.7338 C.ar      1 <0>        -0.6815
     15 C9          1.1769   -1.1221    2.3306 C.ar      1 <0>         0.0019
     16 C10         0.9164   -1.9704    3.3902 C.ar      1 <0>        -0.1328
     17 C11         1.9039   -2.8215    3.8535 C.ar      1 <0>         0.0210
     18 C12         3.1516   -2.8229    3.2558 C.ar      1 <0>        -0.1370
     19 C13         3.4092   -1.9781    2.1926 C.ar      1 <0>        -0.0122
     20 Cl1         1.5776   -3.8870    5.1847 Cl        1 <0>        -0.0455
     21 C14         4.9702   -0.2008   -1.3789 C.3       1 <0>        -0.1420
     22 C15         5.7215    0.7515   -2.3114 C.3       1 <0>        -0.1658
     23 C16         4.8242    1.3125   -1.2063 C.3       1 <0>        -0.1102
     24 C17         5.7892   -0.9557   -0.3300 C.3       1 <0>        -0.0811
     25 C18         6.9260   -0.0858    0.1412 C.2       1 <0>         0.5336
     26 O3          7.0428    1.0434   -0.2858 O.2       1 <0>        -0.4895
     27 N2          7.8129   -0.5626    1.0370 N.am      1 <0>        -0.6406
     28 C19         7.7605   -1.9641    1.4809 C.3       1 <0>         0.0797
     29 C20         9.1609   -2.5704    1.3419 C.3       1 <0>        -0.0227
     30 N3         10.1274   -1.7395    2.0709 N.4       1 <0>        -0.5051
     31 C21        10.2096   -0.4097    1.4536 C.3       1 <0>        -0.0205
     32 C22         8.8647    0.3021    1.5939 C.3       1 <0>         0.0853
     33 H3         -1.2967   -1.8337   -1.2462 H         1 <0>         0.0637
     34 H4         -0.5888   -3.4103   -0.8203 H         1 <0>         0.0628
     35 H5         -1.4376   -2.4525    0.4168 H         1 <0>         0.0640
     36 H6          0.3218   -0.6760    0.1814 H         1 <0>         0.0931
     37 H7          0.9789   -2.2304    0.7473 H         1 <0>         0.0901
     38 H8          2.3163   -3.6261   -0.6608 H         1 <0>         0.0660
     39 H9          1.0287   -3.7756   -1.8815 H         1 <0>         0.0808
     40 H10         3.2367   -4.2374   -2.8917 H         1 <0>         0.0695
     41 H11         2.5353   -2.7525   -3.5776 H         1 <0>         0.0690
     42 H12         4.5789   -2.8582   -1.3124 H         1 <0>         0.0651
     43 H13         4.9386   -2.4486   -3.0074 H         1 <0>         0.0789
     44 H14         0.4063   -0.4574    1.9691 H         1 <0>         0.1556
     45 H15        -0.0577   -1.9687    3.8566 H         1 <0>         0.1486
     46 H16         3.9230   -3.4868    3.6172 H         1 <0>         0.1416
     47 H17         4.3816   -1.9824    1.7229 H         1 <0>         0.1351
     48 H18         6.7997    0.8403   -2.1778 H         1 <0>         0.1085
     49 H19         5.3665    0.8344   -3.3386 H         1 <0>         0.0864
     50 H20         3.8789    1.7644   -1.5065 H         1 <0>         0.0718
     51 H21         5.3121    1.7702   -0.3458 H         1 <0>         0.1328
     52 H22         5.1506   -1.2090    0.5163 H         1 <0>         0.1055
     53 H23         6.1890   -1.8694   -0.7698 H         1 <0>         0.0830
     54 H24         7.4448   -2.0066    2.5233 H         1 <0>         0.0969
     55 H25         7.0578   -2.5191    0.8594 H         1 <0>         0.1283
     56 H26         9.1631   -3.5786    1.7559 H         1 <0>         0.1470
     57 H27         9.4370   -2.6094    0.2882 H         1 <0>         0.1365
     58 H28         9.8317   -1.6456    3.0310 H         1 <0>         0.4291
     59 H29        10.9847    0.1742    1.9501 H         1 <0>         0.1464
     60 H30        10.4540   -0.5141    0.3965 H         1 <0>         0.1352
     61 H31         8.8916    1.2447    1.0472 H         1 <0>         0.1369
     62 H32         8.6624    0.4924    2.6480 H         1 <0>         0.0930
     63 H33        11.0354   -2.1787    2.0426 H         1 <0>         0.4351
@<TRIPOS>BOND
     1    1    2 1
     2    1   33 1
     3    1   34 1
     4    1   35 1
     5    2    3 1
     6    2   36 1
     7    2   37 1
     8    3    4 1
     9    3   10 1
    10    3    5 1
    11    5    6 1
    12    5   38 1
    13    5   39 1
    14    6    7 1
    15    6   40 1
    16    6   41 1
    17    7    8 1
    18    7   42 1
    19    7   43 1
    20    8    9 1
    21    8   10 1
    22    8   21 1
    23   10   11 1
    24   11   12 2
    25   11   13 2
    26   11   14 1
    27   14   19 ar
    28   14   15 ar
    29   15   16 ar
    30   15   44 1
    31   16   17 ar
    32   16   45 1
    33   17   18 ar
    34   17   20 1
    35   18   19 ar
    36   18   46 1
    37   19   47 1
    38   21   23 1
    39   21   22 1
    40   21   24 1
    41   22   23 1
    42   22   48 1
    43   22   49 1
    44   23   50 1
    45   23   51 1
    46   24   25 1
    47   24   52 1
    48   24   53 1
    49   25   26 2
    50   25   27 am
    51   27   32 1
    52   27   28 1
    53   28   29 1
    54   28   54 1
    55   28   55 1
    56   29   30 1
    57   29   56 1
    58   29   57 1
    59   30   31 1
    60   30   58 1
    61   30   63 1
    62   31   32 1
    63   31   59 1
    64   31   60 1
    65   32   61 1
    66   32   62 1
@<TRIPOS>MOLECULE
CHEMBL252211
   62    65     0     0     0
SMALL
USER_CHARGES

@<TRIPOS>ATOM
      1 C1         -0.6467   -2.1544   -0.1932 C.3       1 <0>        -0.1413
      2 C2          0.7150   -1.5042    0.0594 C.3       1 <0>        -0.2064
      3 C3          1.6073   -1.6957   -1.1686 C.3       1 <0>         0.1599
      4 H1          1.0842   -1.3457   -2.0585 H         1 <0>         0.0845
      5 C4          1.9524   -3.1799   -1.3262 C.3       1 <0>        -0.1295
      6 C5          2.9550   -3.3477   -2.4702 C.3       1 <0>        -0.1192
      7 C6          4.2403   -2.5854   -2.1403 C.3       1 <0>        -0.1286
      8 C7          3.9211   -1.0944   -1.9919 C.3       1 <0>         0.1974
      9 H2          3.5890   -0.6947   -2.9501 H         1 <0>         0.0860
     10 N1          2.8516   -0.9336   -0.9969 N.pl3     1 <0>        -0.9855
     11 S1          3.0467    0.0835    0.2953 S.o2      1 <0>         2.6691
     12 O1          4.4245    0.4286    0.3362 O.2       1 <0>        -0.9205
     13 O2          2.0191    1.0605    0.2019 O.2       1 <0>        -0.9575
     14 C8          2.7191   -0.8543    1.7505 C.ar      1 <0>        -0.6804
     15 C9          1.4997   -0.7335    2.3905 C.ar      1 <0>        -0.0015
     16 C10         1.2421   -1.4689    3.5320 C.ar      1 <0>        -0.1368
     17 C11         2.2050   -2.3261    4.0343 C.ar      1 <0>         0.0201
     18 C12         3.4251   -2.4466    3.3934 C.ar      1 <0>        -0.1340
     19 C13         3.6794   -1.7149    2.2487 C.ar      1 <0>        -0.0077
     20 Cl1         1.8824   -3.2497    5.4684 Cl        1 <0>        -0.0514
     21 C14         5.1727   -0.3455   -1.5299 C.3       1 <0>        -0.1404
     22 C15         5.9273    0.4805   -2.5736 C.3       1 <0>        -0.1641
     23 C16         5.1070    1.1826   -1.4897 C.3       1 <0>        -0.1128
     24 C17         5.9998   -1.0457   -0.4499 C.3       1 <0>        -0.0782
     25 C18         7.1823   -0.1854   -0.0860 C.2       1 <0>         0.5287
     26 O3          7.3474    0.8827   -0.6364 O.2       1 <0>        -0.5235
     27 N2          8.0565   -0.6029    0.8510 N.am      1 <0>        -0.6202
     28 C19         7.8784   -1.8973    1.5263 C.3       1 <0>         0.1109
     29 C20         7.9541   -1.6712    3.0400 C.3       1 <0>         0.0394
     30 N3          9.2020   -0.9676    3.3650 N.3       1 <0>        -0.6885
     31 C21         9.2370    0.3665    2.7510 C.3       1 <0>         0.0419
     32 C22         9.2172    0.2211    1.2211 C.3       1 <0>         0.1163
     33 H3         -1.1535   -1.6327   -1.0051 H         1 <0>         0.0616
     34 H4         -0.5050   -3.2002   -0.4659 H         1 <0>         0.0621
     35 H5         -1.2518   -2.0936    0.7114 H         1 <0>         0.0620
     36 H6          0.5797   -0.4391    0.2477 H         1 <0>         0.0927
     37 H7          1.1847   -1.9696    0.9260 H         1 <0>         0.0915
     38 H8          2.3914   -3.5517   -0.4003 H         1 <0>         0.0668
     39 H9          1.0462   -3.7423   -1.5512 H         1 <0>         0.0777
     40 H10         3.1835   -4.4055   -2.6006 H         1 <0>         0.0681
     41 H11         2.5249   -2.9532   -3.3908 H         1 <0>         0.0662
     42 H12         4.6577   -2.9627   -1.2068 H         1 <0>         0.0692
     43 H13         4.9625   -2.7245   -2.9448 H         1 <0>         0.0797
     44 H14         0.7483   -0.0640    1.9985 H         1 <0>         0.1535
     45 H15         0.2895   -1.3742    4.0321 H         1 <0>         0.1456
     46 H16         4.1773   -3.1154    3.7851 H         1 <0>         0.1438
     47 H17         4.6301   -1.8125    1.7456 H         1 <0>         0.1402
     48 H18         7.0133    0.5250   -2.4911 H         1 <0>         0.1137
     49 H19         5.5321    0.4902   -3.5894 H         1 <0>         0.0803
     50 H20         4.1722    1.6543   -1.7923 H         1 <0>         0.0652
     51 H21         5.6533    1.6890   -0.6939 H         1 <0>         0.1350
     52 H22         5.3819   -1.2066    0.4336 H         1 <0>         0.0946
     53 H23         6.3514   -2.0060   -0.8270 H         1 <0>         0.0800
     54 H24         6.9056   -2.3149    1.2666 H         1 <0>         0.0825
     55 H25         8.6681   -2.5826    1.2185 H         1 <0>         0.0776
     56 H26         7.1034   -1.0700    3.3609 H         1 <0>         0.0371
     57 H27         7.9345   -2.6328    3.5528 H         1 <0>         0.0872
     58 H28         9.3350   -0.9098    4.3635 H         1 <0>         0.3475
     59 H29         8.3684    0.9393    3.0760 H         1 <0>         0.0372
     60 H30        10.1478    0.8827    3.0543 H         1 <0>         0.0869
     61 H31        10.1332   -0.2644    0.8845 H         1 <0>         0.0724
     62 H32         9.1300    1.2048    0.7596 H         1 <0>         0.0959
@<TRIPOS>BOND
     1    1    2 1
     2    1   33 1
     3    1   34 1
     4    1   35 1
     5    2    3 1
     6    2   36 1
     7    2   37 1
     8    3    4 1
     9    3   10 1
    10    3    5 1
    11    5    6 1
    12    5   38 1
    13    5   39 1
    14    6    7 1
    15    6   40 1
    16    6   41 1
    17    7    8 1
    18    7   42 1
    19    7   43 1
    20    8    9 1
    21    8   10 1
    22    8   21 1
    23   10   11 1
    24   11   12 2
    25   11   13 2
    26   11   14 1
    27   14   19 ar
    28   14   15 ar
    29   15   16 ar
    30   15   44 1
    31   16   17 ar
    32   16   45 1
    33   17   18 ar
    34   17   20 1
    35   18   19 ar
    36   18   46 1
    37   19   47 1
    38   21   23 1
    39   21   22 1
    40   21   24 1
    41   22   23 1
    42   22   48 1
    43   22   49 1
    44   23   50 1
    45   23   51 1
    46   24   25 1
    47   24   52 1
    48   24   53 1
    49   25   26 2
    50   25   27 am
    51   27   32 1
    52   27   28 1
    53   28   29 1
    54   28   54 1
    55   28   55 1
    56   29   30 1
    57   29   56 1
    58   29   57 1
    59   30   31 1
    60   30   58 1
    61   31   32 1
    62   31   59 1
    63   31   60 1
    64   32   61 1
    65   32   62 1
@<TRIPOS>MOLECULE
CHEMBL515252
   58    63     0     0     0
SMALL
USER_CHARGES

@<TRIPOS>ATOM
      1 C1         -0.1913    0.9834   -0.4085 C.ar      1 <0>        -0.0590
      2 C2          1.0460    1.5790   -0.5143 C.ar      1 <0>        -0.1480
      3 C3          2.1876    0.7964   -0.6393 C.ar      1 <0>         0.1372
      4 C4          2.0864   -0.5895   -0.6581 C.ar      1 <0>        -0.1467
      5 C5          0.8531   -1.1933   -0.5524 C.ar      1 <0>        -0.0604
      6 C6         -0.2978   -0.4101   -0.4265 C.ar      1 <0>        -0.0843
      7 C7         -1.6208   -1.0524   -0.3129 C.2       1 <0>         0.2065
      8 C8         -1.6925   -2.4109   -0.3280 C.2       1 <0>        -0.3097
      9 C9         -2.9534   -3.0437   -0.2200 C.2       1 <0>         0.4249
     10 O1         -3.0553   -4.2598   -0.2296 O.2       1 <0>        -0.4508
     11 C10        -4.1383   -2.1774   -0.0952 C.ar      1 <0>        -0.2619
     12 C11        -5.4259   -2.7192    0.0172 C.ar      1 <0>         0.2258
     13 C12        -6.5178   -1.8777    0.1334 C.ar      1 <0>        -0.2008
     14 C13        -6.3435   -0.5005    0.1391 C.ar      1 <0>         0.2124
     15 C14        -5.0646    0.0532    0.0273 C.ar      1 <0>        -0.0816
     16 C15        -3.9525   -0.7864   -0.0903 C.ar      1 <0>         0.1933
     17 O2         -2.7084   -0.2747   -0.1932 O.3       1 <0>        -0.2155
     18 C16        -4.8884    1.5233    0.0333 C.2       1 <0>        -0.2040
     19 C17        -4.7694    2.2782   -1.2248 C.2       1 <0>         0.4367
     20 O3         -5.0348    1.7776   -2.3052 O.2       1 <0>        -0.4311
     21 C18        -4.3117    3.6736   -1.1039 C.ar      1 <0>        -0.2570
     22 C19        -3.9113    4.4056   -2.2288 C.ar      1 <0>         0.2194
     23 C20        -3.4771    5.7090   -2.0733 C.ar      1 <0>        -0.2013
     24 C21        -3.4414    6.2851   -0.8078 C.ar      1 <0>         0.1920
     25 C22        -3.8415    5.5679    0.3081 C.ar      1 <0>        -0.1811
     26 C23        -4.2833    4.2588    0.1740 C.ar      1 <0>         0.1789
     27 O4         -4.6867    3.5627    1.2556 O.3       1 <0>        -0.2083
     28 C24        -4.8362    2.2308    1.2223 C.2       1 <0>         0.2002
     29 C25        -4.9430    1.4949    2.4934 C.ar      1 <0>        -0.0830
     30 C26        -4.1198    0.3903    2.7360 C.ar      1 <0>        -0.0604
     31 C27        -4.2235   -0.2946    3.9261 C.ar      1 <0>        -0.1455
     32 C28        -5.1444    0.1097    4.8853 C.ar      1 <0>         0.1372
     33 C29        -5.9645    1.2066    4.6489 C.ar      1 <0>        -0.1467
     34 C30        -5.8640    1.9018    3.4644 C.ar      1 <0>        -0.0636
     35 O5         -5.2436   -0.5693    6.0568 O.3       1 <0>        -0.4959
     36 O6         -3.0101    7.5643   -0.6646 O.3       1 <0>        -0.4874
     37 O7         -3.9489    3.8399   -3.4617 O.3       1 <0>        -0.4747
     38 O8         -7.4229    0.3146    0.2537 O.3       1 <0>        -0.4764
     39 O9         -5.6010   -4.0651    0.0117 O.3       1 <0>        -0.4699
     40 O10         3.4053    1.3876   -0.7438 O.3       1 <0>        -0.4957
     41 H1         -1.0776    1.5922   -0.3072 H         1 <0>         0.1345
     42 H2          1.1291    2.6557   -0.5005 H         1 <0>         0.1384
     43 H3          2.9760   -1.1939   -0.7562 H         1 <0>         0.1419
     44 H4          0.7752   -2.2704   -0.5675 H         1 <0>         0.1420
     45 H5         -0.7936   -3.0021   -0.4220 H         1 <0>         0.1650
     46 H6         -7.5105   -2.2942    0.2198 H         1 <0>         0.1540
     47 H7         -3.1649    6.2801   -2.9351 H         1 <0>         0.1511
     48 H8         -3.8090    6.0282    1.2845 H         1 <0>         0.1536
     49 H9         -3.4044    0.0749    1.9909 H         1 <0>         0.1289
     50 H10        -3.5884   -1.1476    4.1143 H         1 <0>         0.1384
     51 H11        -6.6787    1.5170    5.3973 H         1 <0>         0.1407
     52 H12        -6.4984    2.7569    3.2836 H         1 <0>         0.1398
     53 H13        -4.6648   -0.2348    6.7555 H         1 <0>         0.3988
     54 H14        -3.7121    8.2259   -0.7322 H         1 <0>         0.4043
     55 H15        -4.7879    3.9643   -3.9261 H         1 <0>         0.4059
     56 H16        -7.6529    0.5367    1.1663 H         1 <0>         0.3975
     57 H17        -5.5690   -4.4695    0.8895 H         1 <0>         0.4032
     58 H18         3.8422    1.5411    0.1051 H         1 <0>         0.3978
@<TRIPOS>BOND
     1    1    6 ar
     2    1    2 ar
     3    1   41 1
     4    2    3 ar
     5    2   42 1
     6    3    4 ar
     7    3   40 1
     8    4    5 ar
     9    4   43 1
    10    5    6 ar
    11    5   44 1
    12    6    7 1
    13    7   17 1
    14    7    8 2
    15    8    9 1
    16    8   45 1
    17    9   10 2
    18    9   11 1
    19   11   16 ar
    20   11   12 ar
    21   12   13 ar
    22   12   39 1
    23   13   14 ar
    24   13   46 1
    25   14   15 ar
    26   14   38 1
    27   15   16 ar
    28   15   18 1
    29   16   17 1
    30   18   28 2
    31   18   19 1
    32   19   20 2
    33   19   21 1
    34   21   26 ar
    35   21   22 ar
    36   22   23 ar
    37   22   37 1
    38   23   24 ar
    39   23   47 1
    40   24   25 ar
    41   24   36 1
    42   25   26 ar
    43   25   48 1
    44   26   27 1
    45   27   28 1
    46   28   29 1
    47   29   34 ar
    48   29   30 ar
    49   30   31 ar
    50   30   49 1
    51   31   32 ar
    52   31   50 1
    53   32   33 ar
    54   32   35 1
    55   33   34 ar
    56   33   51 1
    57   34   52 1
    58   35   53 1
    59   36   54 1
    60   37   55 1
    61   38   56 1
    62   39   57 1
    63   40   58 1
@<TRIPOS>MOLECULE
CHEMBL1224524
   32    34     0     0     0
SMALL
USER_CHARGES

@<TRIPOS>ATOM
      1 C1          1.4534    1.4363    1.1424 C.ar      1 <0>        -0.0844
      2 C2          1.1759    2.0857   -0.0473 C.ar      1 <0>        -0.1209
      3 C3          0.9166    1.3577   -1.1942 C.ar      1 <0>        -0.0716
      4 C4          0.9334   -0.0221   -1.1575 C.ar      1 <0>        -0.1755
      5 C5          1.2127   -0.6812    0.0377 C.ar      1 <0>         0.0102
      6 C6          1.4733    0.0573    1.1903 C.ar      1 <0>        -0.1076
      7 C7          1.2317   -2.1644    0.0834 C.ar      1 <0>        -0.0738
      8 C8          2.1032   -2.8774   -0.7388 C.ar      1 <0>        -0.1096
      9 C9          2.1217   -4.2575   -0.6977 C.ar      1 <0>        -0.1143
     10 C10         1.2782   -4.9395    0.1573 C.ar      1 <0>        -0.1015
     11 C11         0.4026   -4.2370    0.9839 C.ar      1 <0>        -0.0023
     12 C12         0.3839   -2.8458    0.9508 C.ar      1 <0>        -0.0665
     13 C13        -0.5033   -4.9710    1.9017 C.2       1 <0>         0.0362
     14 C14        -0.5152   -6.3131    2.1123 C.2       1 <0>        -0.0348
     15 N1         -1.4996   -6.5580    3.0284 N.pl3     1 <0>        -0.5679
     16 H1         -1.7511   -7.4252    3.3828 H         1 <0>         0.4238
     17 C15        -2.0576   -5.3703    3.3500 C.2       1 <0>         0.1916
     18 N2         -1.4589   -4.4252    2.6811 N.2       1 <0>        -0.4828
     19 C16         0.6497   -0.8141   -2.4078 C.3       1 <0>         0.5087
     20 F1          0.2532    0.0547   -3.4302 F         1 <0>        -0.1783
     21 F2          1.8057   -1.4979   -2.7991 F         1 <0>        -0.1730
     22 F3         -0.3734   -1.7342   -2.1549 F         1 <0>        -0.1697
     23 H2          1.6593    2.0097    2.0341 H         1 <0>         0.1353
     24 H3          1.1614    3.1651   -0.0804 H         1 <0>         0.1361
     25 H4          0.7002    1.8697   -2.1202 H         1 <0>         0.1399
     26 H5          1.6904   -0.4486    2.1195 H         1 <0>         0.1367
     27 H6          2.7650   -2.3493   -1.4093 H         1 <0>         0.1382
     28 H7          2.7979   -4.8057   -1.3369 H         1 <0>         0.1289
     29 H8          1.2968   -6.0190    0.1854 H         1 <0>         0.1241
     30 H9         -0.2894   -2.2973    1.5929 H         1 <0>         0.1331
     31 H10         0.1282   -7.0447    1.6461 H         1 <0>         0.1804
     32 H11        -2.8665   -5.2267    4.0511 H         1 <0>         0.2113
@<TRIPOS>BOND
     1    1    6 ar
     2    1    2 ar
     3    1   23 1
     4    2    3 ar
     5    2   24 1
     6    3    4 ar
     7    3   25 1
     8    4    5 ar
     9    4   19 1
    10    5    6 ar
    11    5    7 1
    12    6   26 1
    13    7   12 ar
    14    7    8 ar
    15    8    9 ar
    16    8   27 1
    17    9   10 ar
    18    9   28 1
    19   10   11 ar
    20   10   29 1
    21   11   12 ar
    22   11   13 1
    23   12   30 1
    24   13   18 1
    25   13   14 2
    26   14   15 1
    27   14   31 1
    28   15   16 1
    29   15   17 1
    30   17   18 2
    31   17   32 1
    32   19   20 1
    33   19   21 1
    34   19   22 1
@<TRIPOS>MOLECULE
CHEMBL1224524
   33    35     0     0     0
SMALL
USER_CHARGES

@<TRIPOS>ATOM
      1 C1          1.4534    1.4363    1.1424 C.ar      1 <0>        -0.0824
      2 C2          1.1759    2.0857   -0.0473 C.ar      1 <0>        -0.1084
      3 C3          0.9166    1.3577   -1.1942 C.ar      1 <0>        -0.0673
      4 C4          0.9334   -0.0221   -1.1575 C.ar      1 <0>        -0.1701
      5 C5          1.2127   -0.6812    0.0377 C.ar      1 <0>        -0.0128
      6 C6          1.4733    0.0573    1.1903 C.ar      1 <0>        -0.1056
      7 C7          1.2317   -2.1644    0.0834 C.ar      1 <0>        -0.0510
      8 C8          2.1032   -2.8774   -0.7388 C.ar      1 <0>        -0.0792
      9 C9          2.1217   -4.2575   -0.6977 C.ar      1 <0>        -0.1014
     10 C10         1.2782   -4.9395    0.1573 C.ar      1 <0>        -0.0930
     11 C11         0.4026   -4.2370    0.9839 C.ar      1 <0>        -0.0630
     12 C12         0.3839   -2.8458    0.9508 C.ar      1 <0>        -0.0604
     13 C13        -0.5033   -4.9710    1.9017 C.2       1 <0>         0.0913
     14 C14        -1.4052   -4.4148    2.7519 C.2       1 <0>         0.0349
     15 N1         -2.0213   -5.4477    3.4014 N.pl3     1 <0>        -0.5053
     16 H1         -2.7165   -5.3702    4.0734 H         1 <0>         0.4692
     17 C15        -1.4845   -6.5966    2.9350 C.cat     1 <0>         0.3103
     18 N2         -0.5835   -6.3103    2.0376 N.pl3     1 <0>        -0.4770
     19 C16         0.6497   -0.8141   -2.4078 C.3       1 <0>         0.5077
     20 F1          0.2532    0.0547   -3.4302 F         1 <0>        -0.1712
     21 F2          1.8057   -1.4979   -2.7991 F         1 <0>        -0.1731
     22 F3         -0.3734   -1.7342   -2.1549 F         1 <0>        -0.1746
     23 H2          1.6593    2.0097    2.0341 H         1 <0>         0.1400
     24 H3          1.1614    3.1651   -0.0804 H         1 <0>         0.1420
     25 H4          0.7002    1.8697   -2.1202 H         1 <0>         0.1452
     26 H5          1.6904   -0.4486    2.1195 H         1 <0>         0.1371
     27 H6          2.7650   -2.3493   -1.4093 H         1 <0>         0.1525
     28 H7          2.7979   -4.8057   -1.3369 H         1 <0>         0.1430
     29 H8          1.2968   -6.0190    0.1854 H         1 <0>         0.1248
     30 H9         -0.2894   -2.2973    1.5929 H         1 <0>         0.1368
     31 H10        -1.5977   -3.3609    2.8885 H         1 <0>         0.2275
     32 H11        -1.7602   -7.5916    3.2518 H         1 <0>         0.2690
     33 H12        -0.0532   -6.9577    1.5471 H         1 <0>         0.4645
@<TRIPOS>BOND
     1    1    6 ar
     2    1    2 ar
     3    1   23 1
     4    2    3 ar
     5    2   24 1
     6    3    4 ar
     7    3   25 1
     8    4    5 ar
     9    4   19 1
    10    5    6 ar
    11    5    7 1
    12    6   26 1
    13    7   12 ar
    14    7    8 ar
    15    8    9 ar
    16    8   27 1
    17    9   10 ar
    18    9   28 1
    19   10   11 ar
    20   10   29 1
    21   11   12 ar
    22   11   13 1
    23   12   30 1
    24   13   18 1
    25   13   14 2
    26   14   15 1
    27   14   31 1
    28   15   16 1
    29   15   17 1
    30   17   18 2
    31   17   32 1
    32   18   33 1
    33   19   20 1
    34   19   21 1
    35   19   22 1
@<TRIPOS>MOLECULE
CHEMBL1224524
   32    34     0     0     0
SMALL
USER_CHARGES

@<TRIPOS>ATOM
      1 C1          1.4533    1.4360    1.1426 C.ar      1 <0>        -0.0838
      2 C2          1.1764    2.0857   -0.0470 C.ar      1 <0>        -0.1181
      3 C3          0.9176    1.3580   -1.1942 C.ar      1 <0>        -0.0708
      4 C4          0.9344   -0.0218   -1.1579 C.ar      1 <0>        -0.1738
      5 C5          1.2127   -0.6812    0.0373 C.ar      1 <0>         0.0049
      6 C6          1.4728    0.0570    1.1903 C.ar      1 <0>        -0.1071
      7 C7          1.2317   -2.1645    0.0827 C.ar      1 <0>        -0.0618
      8 C8          2.1041   -2.8771   -0.7393 C.ar      1 <0>        -0.1088
      9 C9          2.1237   -4.2575   -0.6990 C.ar      1 <0>        -0.1063
     10 C10         1.2806   -4.9409    0.1545 C.ar      1 <0>        -0.1117
     11 C11         0.4032   -4.2388    0.9825 C.ar      1 <0>        -0.0084
     12 C12         0.3835   -2.8457    0.9491 C.ar      1 <0>        -0.0760
     13 C13        -0.5002   -4.9714    1.8963 C.2       1 <0>         0.0091
     14 C14        -1.4040   -4.4283    2.7561 C.2       1 <0>         0.0029
     15 N1         -2.0159   -5.4310    3.3967 N.2       1 <0>        -0.4921
     16 H1         -0.0821   -7.0046    1.5594 H         1 <0>         0.4209
     17 C15        -1.5383   -6.5723    2.9788 C.2       1 <0>         0.1977
     18 N2         -0.5962   -6.3371    2.0399 N.pl3     1 <0>        -0.5653
     19 C16         0.6517   -0.8135   -2.4087 C.3       1 <0>         0.5083
     20 F1          0.2560    0.0556   -3.4311 F         1 <0>        -0.1769
     21 F2          1.8081   -1.4971   -2.7992 F         1 <0>        -0.1732
     22 F3         -0.3715   -1.7338   -2.1568 F         1 <0>        -0.1704
     23 H2          1.6591    2.0092    2.0345 H         1 <0>         0.1367
     24 H3          1.1619    3.1651   -0.0798 H         1 <0>         0.1373
     25 H4          0.7016    1.8702   -2.1202 H         1 <0>         0.1410
     26 H5          1.6894   -0.4492    2.1194 H         1 <0>         0.1379
     27 H6          2.7658   -2.3484   -1.4094 H         1 <0>         0.1415
     28 H7          2.8010   -4.8046   -1.3380 H         1 <0>         0.1306
     29 H8          1.2998   -6.0204    0.1813 H         1 <0>         0.1181
     30 H9         -0.2905   -2.2974    1.5906 H         1 <0>         0.1323
     31 H10        -1.5939   -3.3744    2.8967 H         1 <0>         0.1729
     32 H11        -1.8497   -7.5469    3.3246 H         1 <0>         0.2126
@<TRIPOS>BOND
     1    1    6 ar
     2    1    2 ar
     3    1   23 1
     4    2    3 ar
     5    2   24 1
     6    3    4 ar
     7    3   25 1
     8    4    5 ar
     9    4   19 1
    10    5    6 ar
    11    5    7 1
    12    6   26 1
    13    7   12 ar
    14    7    8 ar
    15    8    9 ar
    16    8   27 1
    17    9   10 ar
    18    9   28 1
    19   10   11 ar
    20   10   29 1
    21   11   12 ar
    22   11   13 1
    23   12   30 1
    24   13   14 2
    25   13   18 1
    26   14   15 1
    27   14   31 1
    28   15   17 2
    29   16   18 1
    30   17   32 1
    31   17   18 1
    32   19   20 1
    33   19   21 1
    34   19   22 1
@<TRIPOS>MOLECULE
CHEMBL1169994
   35    37     0     0     0
SMALL
USER_CHARGES

@<TRIPOS>ATOM
      1 C1         -0.0843    1.4348    0.0123 C.ar      1 <0>        -0.0055
      2 C2          1.0799    2.1803    0.0020 C.ar      1 <0>        -0.1232
      3 C3          2.3079    1.5446   -0.0251 C.ar      1 <0>         0.0076
      4 C4          2.3703    0.1612   -0.0420 C.ar      1 <0>        -0.0548
      5 C5          1.2047   -0.5830   -0.0317 C.ar      1 <0>         0.0001
      6 C6         -0.0220    0.0541   -0.0047 C.ar      1 <0>        -0.6024
      7 S1         -1.5068   -0.8945    0.0089 S.o2      1 <0>         2.6029
      8 O1         -1.1697   -2.1689    0.5396 O.2       1 <0>        -1.0152
      9 O2         -2.5101   -0.0702    0.5859 O.2       1 <0>        -1.0158
     10 N1         -1.9454   -1.1399   -1.5689 N.2       1 <0>        -1.0587
     11 C7         -3.1004   -1.8710   -1.8685 C.ar      1 <0>         0.2574
     12 C8         -3.8900   -2.3909   -0.8500 C.ar      1 <0>        -0.2110
     13 C9         -5.0267   -3.1090   -1.1964 C.ar      1 <0>        -0.0378
     14 C10        -5.3361   -3.2837   -2.5317 C.ar      1 <0>         0.0326
     15 N2         -4.5673   -2.7788   -3.4786 N.ar      1 <0>        -0.4844
     16 C11        -3.4798   -2.0841   -3.1941 C.ar      1 <0>         0.2535
     17 O3         -2.7220   -1.5780   -4.2007 O.3       1 <0>        -0.2163
     18 C12        -3.0664   -1.8902   -5.4777 C.ar      1 <0>         0.0825
     19 C13        -4.1400   -1.2552   -6.0943 C.ar      1 <0>        -0.0688
     20 C14        -4.4528   -1.6071   -7.3982 C.ar      1 <0>        -0.0754
     21 C15        -3.6930   -2.5706   -8.0382 C.ar      1 <0>         0.0996
     22 N3         -2.6822   -3.1531   -7.4241 N.ar      1 <0>        -0.4545
     23 C16        -2.3489   -2.8426   -6.1869 C.ar      1 <0>         0.1012
     24 Cl1        -5.7819   -0.8488   -8.2181 Cl        1 <0>        -0.0594
     25 Cl2        -6.0486   -3.7810    0.0356 Cl        1 <0>        -0.0809
     26 Cl3         3.9109   -0.6383   -0.0766 Cl        1 <0>        -0.0489
     27 Cl4         3.7701    2.4802   -0.0385 Cl        1 <0>        -0.0489
     28 H1         -1.0430    1.9315    0.0380 H         1 <0>         0.1545
     29 H2          1.0305    3.2591    0.0149 H         1 <0>         0.1490
     30 H3          1.2526   -1.6618   -0.0452 H         1 <0>         0.1575
     31 H4         -3.6256   -2.2402    0.1863 H         1 <0>         0.1296
     32 H5         -6.2195   -3.8417   -2.8047 H         1 <0>         0.1532
     33 H6         -4.7157   -0.5069   -5.5699 H         1 <0>         0.1476
     34 H7         -3.9315   -2.8492   -9.0540 H         1 <0>         0.1646
     35 H8         -1.5114   -3.3384   -5.7189 H         1 <0>         0.1687
@<TRIPOS>BOND
     1    1    6 ar
     2    1    2 ar
     3    1   28 1
     4    2    3 ar
     5    2   29 1
     6    3    4 ar
     7    3   27 1
     8    4    5 ar
     9    4   26 1
    10    5    6 ar
    11    5   30 1
    12    6    7 1
    13    7    8 2
    14    7    9 2
    15    7   10 1
    16   10   11 1
    17   11   16 ar
    18   11   12 ar
    19   12   13 ar
    20   12   31 1
    21   13   14 ar
    22   13   25 1
    23   14   15 ar
    24   14   32 1
    25   15   16 ar
    26   16   17 1
    27   17   18 1
    28   18   23 ar
    29   18   19 ar
    30   19   20 ar
    31   19   33 1
    32   20   21 ar
    33   20   24 1
    34   21   22 ar
    35   21   34 1
    36   22   23 ar
    37   23   35 1
@<TRIPOS>MOLECULE
CHEMBL1209553
   43    45     0     0     0
SMALL
USER_CHARGES

@<TRIPOS>ATOM
      1 C1          0.0187    1.4967    0.1209 C.3       1 <0>        -0.1566
      2 C2          0.0103   -0.0274   -0.0124 C.3       1 <0>        -0.1347
      3 C3          0.7879   -0.6454    1.1513 C.3       1 <0>        -0.1414
      4 C4         -1.4333   -0.5336    0.0129 C.3       1 <0>        -0.1065
      5 C5         -2.1733   -0.0268   -1.2266 C.3       1 <0>        -0.3646
      6 N1         -3.6012   -0.3515   -1.1177 N.pl3     1 <0>        -0.4319
      7 C6         -4.5042    0.3210   -0.3708 C.2       1 <0>         0.2023
      8 N2         -5.6657   -0.2595   -0.4999 N.2       1 <0>        -0.4815
      9 C7         -5.5466   -1.3057   -1.3302 C.2       1 <0>         0.0083
     10 C8         -4.2604   -1.3755   -1.7316 C.2       1 <0>        -0.0751
     11 C9         -3.7022   -2.3966   -2.6879 C.3       1 <0>         0.1985
     12 N3         -2.2336   -2.3439   -2.6692 N.pl3     1 <0>        -0.9870
     13 S1         -1.5122   -0.8436   -2.7121 S.o2      1 <0>         2.6001
     14 O1         -0.1221   -1.0970   -2.5613 O.2       1 <0>        -0.9209
     15 O2         -2.0185   -0.2230   -3.8859 O.2       1 <0>        -0.9226
     16 C10        -1.4320   -3.5689   -2.6142 C.3       1 <0>         0.1648
     17 C11        -1.2409   -4.1072   -4.0088 C.ar      1 <0>        -0.1131
     18 C12        -2.1562   -4.9988   -4.5366 C.ar      1 <0>        -0.0873
     19 C13        -1.9815   -5.4929   -5.8156 C.ar      1 <0>        -0.1112
     20 C14        -0.8904   -5.0950   -6.5676 C.ar      1 <0>        -0.0279
     21 C15         0.0252   -4.2027   -6.0387 C.ar      1 <0>        -0.1092
     22 C16        -0.1536   -3.7050   -4.7618 C.ar      1 <0>        -0.0967
     23 Cl1        -0.6701   -5.7156   -8.1738 Cl        1 <0>        -0.0656
     24 H1          1.0471    1.8574    0.1028 H         1 <0>         0.0675
     25 H2         -0.5353    1.9370   -0.7082 H         1 <0>         0.0478
     26 H3         -0.4498    1.7817    1.0629 H         1 <0>         0.0612
     27 H4          0.4788   -0.3123   -0.9545 H         1 <0>         0.1156
     28 H5          0.3195   -0.3605    2.0933 H         1 <0>         0.0552
     29 H6          0.7820   -1.7313    1.0563 H         1 <0>         0.0585
     30 H7          1.8164   -0.2848    1.1332 H         1 <0>         0.0635
     31 H8         -1.4361   -1.6236    0.0173 H         1 <0>         0.0831
     32 H9         -1.9318   -0.1654    0.9095 H         1 <0>         0.0926
     33 H10        -2.0471    1.0523   -1.3140 H         1 <0>         0.1571
     34 H11        -4.2989    1.1929    0.2325 H         1 <0>         0.2101
     35 H12        -6.3408   -1.9755   -1.6252 H         1 <0>         0.1802
     36 H13        -4.0330   -3.3914   -2.3898 H         1 <0>         0.1151
     37 H14        -4.0597   -2.1833   -3.6953 H         1 <0>         0.0985
     38 H15        -0.4598   -3.3475   -2.1739 H         1 <0>         0.1080
     39 H16        -1.9460   -4.3124   -2.0050 H         1 <0>         0.0990
     40 H17        -3.0076   -5.3096   -3.9494 H         1 <0>         0.1346
     41 H18        -2.6964   -6.1896   -6.2277 H         1 <0>         0.1366
     42 H19         0.8772   -3.8920   -6.6252 H         1 <0>         0.1368
     43 H20         0.5585   -3.0048   -4.3506 H         1 <0>         0.1384
@<TRIPOS>BOND
     1    1    2 1
     2    1   24 1
     3    1   25 1
     4    1   26 1
     5    2    3 1
     6    2    4 1
     7    2   27 1
     8    3   28 1
     9    3   29 1
    10    3   30 1
    11    4    5 1
    12    4   31 1
    13    4   32 1
    14    5   13 1
    15    5    6 1
    16    5   33 1
    17    6   10 1
    18    6    7 1
    19    7    8 2
    20    7   34 1
    21    8    9 1
    22    9   10 2
    23    9   35 1
    24   10   11 1
    25   11   12 1
    26   11   36 1
    27   11   37 1
    28   12   13 1
    29   12   16 1
    30   13   14 2
    31   13   15 2
    32   16   17 1
    33   16   38 1
    34   16   39 1
    35   17   22 ar
    36   17   18 ar
    37   18   19 ar
    38   18   40 1
    39   19   20 ar
    40   19   41 1
    41   20   21 ar
    42   20   23 1
    43   21   22 ar
    44   21   42 1
    45   22   43 1
@<TRIPOS>MOLECULE
CHEMBL1209553
   44    46     0     0     0
SMALL
USER_CHARGES

@<TRIPOS>ATOM
      1 C1          0.0187    1.4967    0.1209 C.3       1 <0>        -0.1609
      2 C2          0.0103   -0.0274   -0.0124 C.3       1 <0>        -0.1329
      3 C3          0.7879   -0.6454    1.1513 C.3       1 <0>        -0.1449
      4 C4         -1.4333   -0.5336    0.0129 C.3       1 <0>        -0.1122
      5 C5         -2.1733   -0.0268   -1.2266 C.3       1 <0>        -0.3894
      6 N1         -3.6012   -0.3515   -1.1177 N.pl3     1 <0>        -0.3850
      7 C6         -4.5042    0.3210   -0.3708 C.cat     1 <0>         0.3044
      8 N2         -5.6657   -0.2595   -0.4999 N.pl3     1 <0>        -0.4675
      9 C7         -5.5466   -1.3057   -1.3302 C.2       1 <0>         0.0322
     10 C8         -4.2604   -1.3755   -1.7316 C.2       1 <0>         0.0102
     11 C9         -3.7022   -2.3966   -2.6879 C.3       1 <0>         0.1795
     12 N3         -2.2336   -2.3439   -2.6692 N.pl3     1 <0>        -0.9852
     13 S1         -1.5122   -0.8436   -2.7121 S.o2      1 <0>         2.5963
     14 O1         -0.1221   -1.0970   -2.5613 O.2       1 <0>        -0.8891
     15 O2         -2.0185   -0.2230   -3.8859 O.2       1 <0>        -0.9001
     16 C10        -1.4320   -3.5689   -2.6142 C.3       1 <0>         0.1642
     17 C11        -1.2409   -4.1072   -4.0088 C.ar      1 <0>        -0.1258
     18 C12        -2.1562   -4.9988   -4.5366 C.ar      1 <0>        -0.0877
     19 C13        -1.9815   -5.4929   -5.8156 C.ar      1 <0>        -0.1104
     20 C14        -0.8904   -5.0950   -6.5676 C.ar      1 <0>        -0.0227
     21 C15         0.0252   -4.2027   -6.0387 C.ar      1 <0>        -0.1071
     22 C16        -0.1536   -3.7050   -4.7618 C.ar      1 <0>        -0.0951
     23 Cl1        -0.6701   -5.7156   -8.1738 Cl        1 <0>        -0.0550
     24 H1          1.0471    1.8574    0.1028 H         1 <0>         0.0764
     25 H2         -0.5353    1.9370   -0.7082 H         1 <0>         0.0465
     26 H3         -0.4498    1.7817    1.0629 H         1 <0>         0.0640
     27 H4          0.4788   -0.3123   -0.9545 H         1 <0>         0.1191
     28 H5          0.3195   -0.3605    2.0933 H         1 <0>         0.0579
     29 H6          0.7820   -1.7313    1.0563 H         1 <0>         0.0621
     30 H7          1.8164   -0.2848    1.1332 H         1 <0>         0.0712
     31 H8         -1.4361   -1.6236    0.0173 H         1 <0>         0.0939
     32 H9         -1.9318   -0.1654    0.9095 H         1 <0>         0.0987
     33 H10        -2.0471    1.0523   -1.3140 H         1 <0>         0.1823
     34 H11        -4.2989    1.1929    0.2325 H         1 <0>         0.2659
     35 H12        -6.3408   -1.9755   -1.6252 H         1 <0>         0.2350
     36 H13        -4.0330   -3.3914   -2.3898 H         1 <0>         0.1416
     37 H14        -4.0597   -2.1833   -3.6953 H         1 <0>         0.1270
     38 H15        -0.4598   -3.3475   -2.1739 H         1 <0>         0.1150
     39 H16        -1.9460   -4.3124   -2.0050 H         1 <0>         0.1052
     40 H17        -3.0076   -5.3096   -3.9494 H         1 <0>         0.1336
     41 H18        -2.6964   -6.1896   -6.2277 H         1 <0>         0.1392
     42 H19         0.8772   -3.8920   -6.6252 H         1 <0>         0.1401
     43 H20         0.5585   -3.0048   -4.3506 H         1 <0>         0.1385
     44 H21        -6.4856    0.0212   -0.0640 H         1 <0>         0.4708
@<TRIPOS>BOND
     1    1    2 1
     2    1   24 1
     3    1   25 1
     4    1   26 1
     5    2    3 1
     6    2    4 1
     7    2   27 1
     8    3   28 1
     9    3   29 1
    10    3   30 1
    11    4    5 1
    12    4   31 1
    13    4   32 1
    14    5   13 1
    15    5    6 1
    16    5   33 1
    17    6   10 1
    18    6    7 1
    19    7    8 2
    20    7   34 1
    21    8    9 1
    22    8   44 1
    23    9   10 2
    24    9   35 1
    25   10   11 1
    26   11   12 1
    27   11   36 1
    28   11   37 1
    29   12   13 1
    30   12   16 1
    31   13   14 2
    32   13   15 2
    33   16   17 1
    34   16   38 1
    35   16   39 1
    36   17   22 ar
    37   17   18 ar
    38   18   19 ar
    39   18   40 1
    40   19   20 ar
    41   19   41 1
    42   20   21 ar
    43   20   23 1
    44   21   22 ar
    45   21   42 1
    46   22   43 1
@<TRIPOS>MOLECULE
CHEMBL1209553
   43    45     0     0     0
SMALL
USER_CHARGES

@<TRIPOS>ATOM
      1 C1         -0.5954   -2.5993   -1.0474 C.3       1 <0>        -0.1584
      2 C2         -1.4336   -2.1122    0.1363 C.3       1 <0>        -0.0954
      3 C3         -0.8247   -2.6314    1.4404 C.3       1 <0>        -0.1462
      4 C4         -1.4496   -0.5823    0.1545 C.3       1 <0>        -0.1179
      5 C5         -2.1680   -0.0649   -1.0933 C.3       1 <0>        -0.3648
      6 N1         -3.5927   -0.4134   -1.0241 N.pl3     1 <0>        -0.4261
      7 C6         -4.1173   -1.6291   -1.2930 C.2       1 <0>         0.2016
      8 N2         -5.4080   -1.5753   -1.1088 N.2       1 <0>        -0.4815
      9 C7         -5.7483   -0.3354   -0.7279 C.2       1 <0>         0.0073
     10 C8         -4.6238    0.4082   -0.6746 C.2       1 <0>        -0.0723
     11 C9         -4.5631    1.8679   -0.3084 C.3       1 <0>         0.1979
     12 N3         -3.1667    2.2650   -0.0796 N.pl3     1 <0>        -0.9863
     13 S1         -2.0251    1.7472   -1.1758 S.o2      1 <0>         2.6020
     14 O1         -0.7790    2.1711   -0.6404 O.2       1 <0>        -0.9258
     15 O2         -2.4789    2.2233   -2.4355 O.2       1 <0>        -0.9241
     16 C10        -2.7921    3.0884    1.0727 C.3       1 <0>         0.1654
     17 C11        -2.6434    2.2116    2.2894 C.ar      1 <0>        -0.1139
     18 C12        -3.7550    1.8776    3.0403 C.ar      1 <0>        -0.0853
     19 C13        -3.6193    1.0735    4.1563 C.ar      1 <0>        -0.1110
     20 C14        -2.3706    0.6030    4.5218 C.ar      1 <0>        -0.0275
     21 C15        -1.2585    0.9377    3.7699 C.ar      1 <0>        -0.1111
     22 C16        -1.3963    1.7372    2.6509 C.ar      1 <0>        -0.0952
     23 Cl1        -2.1993   -0.4065    5.9237 Cl        1 <0>        -0.0663
     24 H1         -0.5060   -3.6849   -1.0069 H         1 <0>         0.0653
     25 H2         -1.0800   -2.3091   -1.9796 H         1 <0>         0.0522
     26 H3          0.3970   -2.1510   -0.9988 H         1 <0>         0.0620
     27 H4         -2.4530   -2.4850    0.0375 H         1 <0>         0.0785
     28 H5          0.1947   -2.2585    1.5391 H         1 <0>         0.0586
     29 H6         -1.4219   -2.2843    2.2836 H         1 <0>         0.0562
     30 H7         -0.8133   -3.7213    1.4274 H         1 <0>         0.0608
     31 H8         -1.9729   -0.2351    1.0454 H         1 <0>         0.0902
     32 H9         -0.4258   -0.2084    0.1657 H         1 <0>         0.1023
     33 H10        -1.7234   -0.5093   -1.9838 H         1 <0>         0.1565
     34 H11        -3.5613   -2.4998   -1.6082 H         1 <0>         0.2080
     35 H12        -6.7475    0.0079   -0.5038 H         1 <0>         0.1785
     36 H13        -4.9808    2.4630   -1.1205 H         1 <0>         0.1010
     37 H14        -5.1418    2.0382    0.5994 H         1 <0>         0.1125
     38 H15        -1.8462    3.5901    0.8687 H         1 <0>         0.1061
     39 H16        -3.5668    3.8333    1.2542 H         1 <0>         0.1021
     40 H17        -4.7296    2.2452    2.7551 H         1 <0>         0.1327
     41 H18        -4.4877    0.8129    4.7430 H         1 <0>         0.1346
     42 H19        -0.2835    0.5710    4.0550 H         1 <0>         0.1353
     43 H20        -0.5290    1.9946    2.0612 H         1 <0>         0.1415
@<TRIPOS>BOND
     1    1    2 1
     2    1   24 1
     3    1   25 1
     4    1   26 1
     5    2    3 1
     6    2    4 1
     7    2   27 1
     8    3   28 1
     9    3   29 1
    10    3   30 1
    11    4    5 1
    12    4   31 1
    13    4   32 1
    14    5   13 1
    15    5    6 1
    16    5   33 1
    17    6   10 1
    18    6    7 1
    19    7    8 2
    20    7   34 1
    21    8    9 1
    22    9   10 2
    23    9   35 1
    24   10   11 1
    25   11   12 1
    26   11   36 1
    27   11   37 1
    28   12   13 1
    29   12   16 1
    30   13   14 2
    31   13   15 2
    32   16   17 1
    33   16   38 1
    34   16   39 1
    35   17   22 ar
    36   17   18 ar
    37   18   19 ar
    38   18   40 1
    39   19   20 ar
    40   19   41 1
    41   20   21 ar
    42   20   23 1
    43   21   22 ar
    44   21   42 1
    45   22   43 1
@<TRIPOS>MOLECULE
CHEMBL1209553
   44    46     0     0     0
SMALL
USER_CHARGES

@<TRIPOS>ATOM
      1 C1         -0.5954   -2.5993   -1.0474 C.3       1 <0>        -0.1671
      2 C2         -1.4336   -2.1122    0.1363 C.3       1 <0>        -0.0919
      3 C3         -0.8247   -2.6314    1.4404 C.3       1 <0>        -0.1523
      4 C4         -1.4496   -0.5823    0.1545 C.3       1 <0>        -0.1298
      5 C5         -2.1680   -0.0649   -1.0933 C.3       1 <0>        -0.3879
      6 N1         -3.5927   -0.4134   -1.0241 N.pl3     1 <0>        -0.3792
      7 C6         -4.1173   -1.6291   -1.2930 C.cat     1 <0>         0.2996
      8 N2         -5.4080   -1.5753   -1.1088 N.pl3     1 <0>        -0.4672
      9 C7         -5.7483   -0.3354   -0.7279 C.2       1 <0>         0.0316
     10 C8         -4.6238    0.4082   -0.6746 C.2       1 <0>         0.0124
     11 C9         -4.5631    1.8679   -0.3084 C.3       1 <0>         0.1796
     12 N3         -3.1667    2.2650   -0.0796 N.pl3     1 <0>        -0.9838
     13 S1         -2.0251    1.7472   -1.1758 S.o2      1 <0>         2.5996
     14 O1         -0.7790    2.1711   -0.6404 O.2       1 <0>        -0.8932
     15 O2         -2.4789    2.2233   -2.4355 O.2       1 <0>        -0.9013
     16 C10        -2.7921    3.0884    1.0727 C.3       1 <0>         0.1624
     17 C11        -2.6434    2.2116    2.2894 C.ar      1 <0>        -0.1240
     18 C12        -3.7550    1.8776    3.0403 C.ar      1 <0>        -0.0906
     19 C13        -3.6193    1.0735    4.1563 C.ar      1 <0>        -0.1119
     20 C14        -2.3706    0.6030    4.5218 C.ar      1 <0>        -0.0255
     21 C15        -1.2585    0.9377    3.7699 C.ar      1 <0>        -0.1087
     22 C16        -1.3963    1.7372    2.6509 C.ar      1 <0>        -0.0953
     23 Cl1        -2.1993   -0.4065    5.9237 Cl        1 <0>        -0.0554
     24 H1         -0.5060   -3.6849   -1.0069 H         1 <0>         0.0739
     25 H2         -1.0800   -2.3091   -1.9796 H         1 <0>         0.0505
     26 H3          0.3970   -2.1510   -0.9988 H         1 <0>         0.0729
     27 H4         -2.4530   -2.4850    0.0375 H         1 <0>         0.0620
     28 H5          0.1947   -2.2585    1.5391 H         1 <0>         0.0677
     29 H6         -1.4219   -2.2843    2.2836 H         1 <0>         0.0598
     30 H7         -0.8133   -3.7213    1.4274 H         1 <0>         0.0678
     31 H8         -1.9729   -0.2351    1.0454 H         1 <0>         0.1004
     32 H9         -0.4258   -0.2084    0.1657 H         1 <0>         0.1259
     33 H10        -1.7234   -0.5093   -1.9838 H         1 <0>         0.1825
     34 H11        -3.5613   -2.4998   -1.6082 H         1 <0>         0.2631
     35 H12        -6.7475    0.0079   -0.5038 H         1 <0>         0.2345
     36 H13        -4.9808    2.4630   -1.1205 H         1 <0>         0.1302
     37 H14        -5.1418    2.0382    0.5994 H         1 <0>         0.1388
     38 H15        -1.8462    3.5901    0.8687 H         1 <0>         0.1150
     39 H16        -3.5668    3.8333    1.2542 H         1 <0>         0.1114
     40 H17        -4.7296    2.2452    2.7551 H         1 <0>         0.1329
     41 H18        -4.4877    0.8129    4.7430 H         1 <0>         0.1370
     42 H19        -0.2835    0.5710    4.0550 H         1 <0>         0.1393
     43 H20        -0.5290    1.9946    2.0612 H         1 <0>         0.1439
     44 H21        -6.0239   -2.3150   -1.2288 H         1 <0>         0.4702
@<TRIPOS>BOND
     1    1    2 1
     2    1   24 1
     3    1   25 1
     4    1   26 1
     5    2    3 1
     6    2    4 1
     7    2   27 1
     8    3   28 1
     9    3   29 1
    10    3   30 1
    11    4    5 1
    12    4   31 1
    13    4   32 1
    14    5   13 1
    15    5    6 1
    16    5   33 1
    17    6   10 1
    18    6    7 1
    19    7    8 2
    20    7   34 1
    21    8    9 1
    22    8   44 1
    23    9   10 2
    24    9   35 1
    25   10   11 1
    26   11   12 1
    27   11   36 1
    28   11   37 1
    29   12   13 1
    30   12   16 1
    31   13   14 2
    32   13   15 2
    33   16   17 1
    34   16   38 1
    35   16   39 1
    36   17   22 ar
    37   17   18 ar
    38   18   19 ar
    39   18   40 1
    40   19   20 ar
    41   19   41 1
    42   20   21 ar
    43   20   23 1
    44   21   22 ar
    45   21   42 1
    46   22   43 1
@<TRIPOS>MOLECULE
CHEMBL266738
   73    78     0     0     0
SMALL
USER_CHARGES

@<TRIPOS>ATOM
      1 C1          2.4503    1.6858    3.8712 C.3       1 <0>         0.0245
      2 O1          2.4799    0.2672    4.0401 O.3       1 <0>        -0.3124
      3 C2          1.9765   -0.4855    3.0267 C.ar      1 <0>         0.1502
      4 C3          1.4698    0.1296    1.8903 C.ar      1 <0>        -0.2065
      5 C4          0.9578   -0.6345    0.8593 C.ar      1 <0>        -0.0569
      6 C5          0.9486   -2.0128    0.9562 C.ar      1 <0>        -0.1677
      7 C6          1.4546   -2.6333    2.0905 C.ar      1 <0>         0.1587
      8 C7          1.9740   -1.8680    3.1248 C.ar      1 <0>        -0.1732
      9 N1          1.4451   -4.0319    2.1887 N.am      1 <0>        -0.5101
     10 C8          2.0144   -4.7252    3.1967 C.2       1 <0>         0.5325
     11 O2          2.6086   -4.2758    4.1531 O.2       1 <0>        -0.4278
     12 C9          1.7545   -6.1798    2.8820 C.3       1 <0>         0.1134
     13 C10         0.9219   -6.8249    3.9856 C.3       1 <0>        -0.1404
     14 C11         0.7145   -8.3072    3.6619 C.3       1 <0>        -0.0335
     15 N2          2.0182   -8.9729    3.5521 N.4       1 <0>        -0.3836
     16 C12         2.7756   -8.4086    2.4285 C.3       1 <0>        -0.0274
     17 C13         3.0700   -6.9305    2.6999 C.3       1 <0>        -0.1386
     18 C14         1.8145  -10.4106    3.3298 C.3       1 <0>         0.0411
     19 C15         3.1472  -11.1142    3.3393 C.ar      1 <0>        -0.1616
     20 C16         3.8568  -11.2618    2.1611 C.ar      1 <0>        -0.0926
     21 C17         5.0778  -11.9052    2.1639 C.ar      1 <0>        -0.1025
     22 C18         5.5954  -12.4066    3.3566 C.ar      1 <0>        -0.0042
     23 C19         4.8762  -12.2551    4.5405 C.ar      1 <0>        -0.1019
     24 C20         3.6589  -11.6049    4.5270 C.ar      1 <0>        -0.0848
     25 C21         6.9072  -13.0997    3.3658 C.ar      1 <0>        -0.0267
     26 C22         7.6448  -13.2561    2.1889 C.ar      1 <0>        -0.1584
     27 C23         8.8602  -13.9071    2.2421 C.ar      1 <0>         0.1081
     28 N3          9.3265  -14.3784    3.3827 N.ar      1 <0>        -0.4742
     29 C24         8.6621  -14.2518    4.5153 C.ar      1 <0>         0.1083
     30 C25         7.4418  -13.6089    4.5526 C.ar      1 <0>        -0.1582
     31 N4          1.0021   -6.1448    1.6220 N.am      1 <0>        -0.6195
     32 C26         0.8653   -4.8448    1.2970 C.2       1 <0>         0.7008
     33 O3          0.2835   -4.4539    0.3041 O.2       1 <0>        -0.4833
     34 C27         0.4961   -7.2956    0.8697 C.3       1 <0>         0.1835
     35 C28        -1.0044   -7.2056    0.7632 C.ar      1 <0>        -0.1801
     36 C29        -1.8032   -7.8605    1.6817 C.ar      1 <0>        -0.0899
     37 C30        -3.1795   -7.7782    1.5842 C.ar      1 <0>        -0.1323
     38 C31        -3.7589   -7.0409    0.5682 C.ar      1 <0>        -0.0666
     39 C32        -2.9624   -6.3850   -0.3509 C.ar      1 <0>        -0.1538
     40 C33        -1.5833   -6.4624   -0.2512 C.ar      1 <0>         0.1513
     41 F1         -0.8035   -5.8177   -1.1464 F         1 <0>        -0.1108
     42 H1          1.4189    2.0154    3.7460 H         1 <0>         0.0597
     43 H2          2.8808    2.1655    4.7503 H         1 <0>         0.1061
     44 H3          3.0286    1.9588    2.9885 H         1 <0>         0.0598
     45 H4          1.4754    1.2068    1.8120 H         1 <0>         0.1368
     46 H5          0.5638   -0.1536   -0.0238 H         1 <0>         0.1381
     47 H6          0.5472   -2.6078    0.1493 H         1 <0>         0.1626
     48 H7          2.3716   -2.3485    4.0065 H         1 <0>         0.1570
     49 H8          1.4437   -6.7299    4.9378 H         1 <0>         0.1214
     50 H9         -0.0459   -6.3275    4.0492 H         1 <0>         0.1273
     51 H10         0.1340   -8.7747    4.4572 H         1 <0>         0.1504
     52 H11         0.1782   -8.4011    2.7177 H         1 <0>         0.1427
     53 H12         3.7143   -8.9508    2.3145 H         1 <0>         0.1487
     54 H13         2.1903   -8.5002    1.5135 H         1 <0>         0.1385
     55 H14         3.6166   -6.5077    1.8570 H         1 <0>         0.1274
     56 H15         3.6695   -6.8393    3.6056 H         1 <0>         0.1202
     57 H16         1.1845  -10.8151    4.1221 H         1 <0>         0.1440
     58 H17         1.3295  -10.5641    2.3658 H         1 <0>         0.1374
     59 H18         3.4545  -10.8731    1.2373 H         1 <0>         0.1356
     60 H19         5.6308  -12.0202    1.2434 H         1 <0>         0.1405
     61 H20         5.2726  -12.6420    5.4676 H         1 <0>         0.1405
     62 H21         3.1027  -11.4830    5.4447 H         1 <0>         0.1370
     63 H22         7.2687  -12.8734    1.2516 H         1 <0>         0.1392
     64 H23         9.4373  -14.0328    1.3380 H         1 <0>         0.1636
     65 H24         9.0809  -14.6532    5.4264 H         1 <0>         0.1637
     66 H25         6.9055  -13.5048    5.4842 H         1 <0>         0.1395
     67 H26         0.9319   -7.2965   -0.1294 H         1 <0>         0.1048
     68 H27         0.7692   -8.2158    1.3861 H         1 <0>         0.0959
     69 H28        -1.3518   -8.4371    2.4755 H         1 <0>         0.1233
     70 H29        -3.8029   -8.2906    2.3021 H         1 <0>         0.1356
     71 H30        -4.8344   -6.9778    0.4926 H         1 <0>         0.1401
     72 H31        -3.4151   -5.8093   -1.1446 H         1 <0>         0.1430
     73 H32         2.5366   -8.8376    4.4071 H         1 <0>         0.4270
@<TRIPOS>BOND
     1    1    2 1
     2    1   42 1
     3    1   43 1
     4    1   44 1
     5    2    3 1
     6    3    8 ar
     7    3    4 ar
     8    4    5 ar
     9    4   45 1
    10    5    6 ar
    11    5   46 1
    12    6    7 ar
    13    6   47 1
    14    7    8 ar
    15    7    9 1
    16    8   48 1
    17    9   32 am
    18    9   10 am
    19   10   11 2
    20   10   12 1
    21   12   17 1
    22   12   13 1
    23   12   31 1
    24   13   14 1
    25   13   49 1
    26   13   50 1
    27   14   15 1
    28   14   51 1
    29   14   52 1
    30   15   16 1
    31   15   18 1
    32   15   73 1
    33   16   17 1
    34   16   53 1
    35   16   54 1
    36   17   55 1
    37   17   56 1
    38   18   19 1
    39   18   57 1
    40   18   58 1
    41   19   24 ar
    42   19   20 ar
    43   20   21 ar
    44   20   59 1
    45   21   22 ar
    46   21   60 1
    47   22   23 ar
    48   22   25 1
    49   23   24 ar
    50   23   61 1
    51   24   62 1
    52   25   30 ar
    53   25   26 ar
    54   26   27 ar
    55   26   63 1
    56   27   28 ar
    57   27   64 1
    58   28   29 ar
    59   29   30 ar
    60   29   65 1
    61   30   66 1
    62   31   32 am
    63   31   34 1
    64   32   33 2
    65   34   35 1
    66   34   67 1
    67   34   68 1
    68   35   40 ar
    69   35   36 ar
    70   36   37 ar
    71   36   69 1
    72   37   38 ar
    73   37   70 1
    74   38   39 ar
    75   38   71 1
    76   39   40 ar
    77   39   72 1
    78   40   41 1
@<TRIPOS>MOLECULE
CHEMBL266738
   72    77     0     0     0
SMALL
USER_CHARGES

@<TRIPOS>ATOM
      1 C1          2.1090    1.7254   -4.0460 C.3       1 <0>         0.0265
      2 O1          2.2676    0.3096   -4.1562 O.3       1 <0>        -0.3132
      3 C2          1.6641   -0.4545   -3.2081 C.ar      1 <0>         0.1467
      4 C3          0.9293    0.1469   -2.1957 C.ar      1 <0>        -0.2147
      5 C4          0.3153   -0.6289   -1.2313 C.ar      1 <0>        -0.0605
      6 C5          0.4307   -2.0052   -1.2715 C.ar      1 <0>        -0.1706
      7 C6          1.1641   -2.6120   -2.2822 C.ar      1 <0>         0.1718
      8 C7          1.7771   -1.8351   -3.2547 C.ar      1 <0>        -0.1751
      9 N1          1.2811   -4.0086   -2.3229 N.am      1 <0>        -0.5190
     10 C8          1.8752   -4.6910   -3.3240 C.2       1 <0>         0.5312
     11 O2          2.3896   -4.2319   -4.3212 O.2       1 <0>        -0.4396
     12 C9          1.7644   -6.1479   -2.9396 C.3       1 <0>         0.1264
     13 C10         3.1503   -6.7651   -2.7801 C.3       1 <0>        -0.1087
     14 C11         3.0067   -8.2461   -2.4178 C.3       1 <0>         0.0339
     15 N2          2.2427   -8.9342   -3.4664 N.3       1 <0>        -0.5302
     16 C12         0.8830   -8.3911   -3.5795 C.3       1 <0>         0.0397
     17 C13         0.9551   -6.9149   -3.9807 C.3       1 <0>        -0.1085
     18 C14         2.2126  -10.3838   -3.2305 C.3       1 <0>         0.0918
     19 C15         1.6397  -11.0776   -4.4394 C.ar      1 <0>        -0.0706
     20 C16         0.2760  -11.2913   -4.5294 C.ar      1 <0>        -0.1137
     21 C17        -0.2541  -11.9262   -5.6343 C.ar      1 <0>        -0.1010
     22 C18         0.5872  -12.3523   -6.6602 C.ar      1 <0>        -0.0538
     23 C19         1.9602  -12.1344   -6.5642 C.ar      1 <0>        -0.1006
     24 C20         2.4788  -11.4934   -5.4574 C.ar      1 <0>        -0.0934
     25 C21         0.0232  -13.0358   -7.8501 C.ar      1 <0>         0.0011
     26 C22        -1.3519  -13.2581   -7.9658 C.ar      1 <0>        -0.1678
     27 C23        -1.8344  -13.8975   -9.0892 C.ar      1 <0>         0.1036
     28 N3         -1.0170  -14.2970  -10.0446 N.ar      1 <0>        -0.4877
     29 C24         0.2866  -14.1068   -9.9743 C.ar      1 <0>         0.1038
     30 C25         0.8518  -13.4700   -8.8886 C.ar      1 <0>        -0.1672
     31 N4          1.0589   -6.1258   -1.6524 N.am      1 <0>        -0.6077
     32 C26         0.8224   -4.8301   -1.3706 C.2       1 <0>         0.6990
     33 O3          0.2537   -4.4497   -0.3662 O.2       1 <0>        -0.5060
     34 C27         0.6902   -7.2835   -0.8338 C.3       1 <0>         0.1800
     35 C28         1.3455   -7.1715    0.5187 C.ar      1 <0>        -0.1658
     36 C29         2.5567   -7.7946    0.7538 C.ar      1 <0>        -0.0817
     37 C30         3.1580   -7.6921    1.9941 C.ar      1 <0>        -0.1385
     38 C31         2.5488   -6.9663    3.0010 C.ar      1 <0>        -0.0765
     39 C32         1.3383   -6.3421    2.7682 C.ar      1 <0>        -0.1627
     40 C33         0.7374   -6.4398    1.5243 C.ar      1 <0>         0.1457
     41 F1         -0.4439   -5.8260    1.2941 F         1 <0>        -0.1145
     42 H1          1.0497    1.9775   -4.0973 H         1 <0>         0.0572
     43 H2          2.5172    2.0638   -3.0936 H         1 <0>         0.0571
     44 H3          2.6389    2.2151   -4.8630 H         1 <0>         0.1025
     45 H4          0.8377    1.2225   -2.1616 H         1 <0>         0.1323
     46 H5         -0.2556   -0.1586   -0.4443 H         1 <0>         0.1340
     47 H6         -0.0496   -2.6093   -0.5160 H         1 <0>         0.1637
     48 H7          2.3450   -2.3050   -4.0440 H         1 <0>         0.1584
     49 H8          3.7003   -6.6713   -3.7164 H         1 <0>         0.1031
     50 H9          3.6900   -6.2473   -1.9872 H         1 <0>         0.0816
     51 H10         3.9954   -8.6970   -2.3333 H         1 <0>         0.0919
     52 H11         2.4826   -8.3383   -1.4665 H         1 <0>         0.0584
     53 H12         0.3315   -8.9471   -4.3376 H         1 <0>         0.0952
     54 H13         0.3742   -8.4824   -2.6198 H         1 <0>         0.0485
     55 H14        -0.0526   -6.5027   -4.0340 H         1 <0>         0.0817
     56 H15         1.4371   -6.8256   -4.9542 H         1 <0>         0.1026
     57 H16         3.2257  -10.7438   -3.0511 H         1 <0>         0.0905
     58 H17         1.5916  -10.5975   -2.3606 H         1 <0>         0.0475
     59 H18        -0.3750  -10.9610   -3.7336 H         1 <0>         0.1234
     60 H19        -1.3189  -12.0929   -5.7034 H         1 <0>         0.1266
     61 H20         2.6168  -12.4629   -7.3563 H         1 <0>         0.1274
     62 H21         3.5423  -11.3201   -5.3839 H         1 <0>         0.1284
     63 H22        -2.0267  -12.9343   -7.1872 H         1 <0>         0.1368
     64 H23        -2.8954  -14.0737   -9.1876 H         1 <0>         0.1580
     65 H24         0.9193  -14.4504  -10.7793 H         1 <0>         0.1583
     66 H25         1.9193  -13.3134   -8.8397 H         1 <0>         0.1376
     67 H26        -0.3926   -7.3120   -0.7116 H         1 <0>         0.0895
     68 H27         1.0246   -8.1972   -1.3250 H         1 <0>         0.1192
     69 H28         3.0332   -8.3621   -0.0319 H         1 <0>         0.1353
     70 H29         4.1042   -8.1796    2.1770 H         1 <0>         0.1312
     71 H30         3.0193   -6.8874    3.9700 H         1 <0>         0.1336
     72 H31         0.8625   -5.7755    3.5550 H         1 <0>         0.1365
@<TRIPOS>BOND
     1    1    2 1
     2    1   42 1
     3    1   43 1
     4    1   44 1
     5    2    3 1
     6    3    8 ar
     7    3    4 ar
     8    4    5 ar
     9    4   45 1
    10    5    6 ar
    11    5   46 1
    12    6    7 ar
    13    6   47 1
    14    7    8 ar
    15    7    9 1
    16    8   48 1
    17    9   32 am
    18    9   10 am
    19   10   11 2
    20   10   12 1
    21   12   17 1
    22   12   13 1
    23   12   31 1
    24   13   14 1
    25   13   49 1
    26   13   50 1
    27   14   15 1
    28   14   51 1
    29   14   52 1
    30   15   16 1
    31   15   18 1
    32   16   17 1
    33   16   53 1
    34   16   54 1
    35   17   55 1
    36   17   56 1
    37   18   19 1
    38   18   57 1
    39   18   58 1
    40   19   24 ar
    41   19   20 ar
    42   20   21 ar
    43   20   59 1
    44   21   22 ar
    45   21   60 1
    46   22   23 ar
    47   22   25 1
    48   23   24 ar
    49   23   61 1
    50   24   62 1
    51   25   30 ar
    52   25   26 ar
    53   26   27 ar
    54   26   63 1
    55   27   28 ar
    56   27   64 1
    57   28   29 ar
    58   29   30 ar
    59   29   65 1
    60   30   66 1
    61   31   32 am
    62   31   34 1
    63   32   33 2
    64   34   35 1
    65   34   67 1
    66   34   68 1
    67   35   40 ar
    68   35   36 ar
    69   36   37 ar
    70   36   69 1
    71   37   38 ar
    72   37   70 1
    73   38   39 ar
    74   38   71 1
    75   39   40 ar
    76   39   72 1
    77   40   41 1
@<TRIPOS>MOLECULE
CHEMBL1087758
   47    50     0     0     0
SMALL
USER_CHARGES

@<TRIPOS>ATOM
      1 C1         -0.0184    1.5028    0.0103 C.3       1 <0>        -0.0786
      2 C2          0.0021   -0.0041    0.0020 C.2       1 <0>        -0.1539
      3 C3          0.0080   -0.7987   -1.0831 C.2       1 <0>         0.0919
      4 N1          0.0275   -2.1107   -0.6997 N.pl3     1 <0>        -0.4373
      5 C4          0.0348   -2.1975    0.6684 C.ar      1 <0>         0.0625
      6 C5          0.0256   -0.8789    1.1696 C.ar      1 <0>        -0.1011
      7 C6          0.0365   -0.6996    2.5556 C.ar      1 <0>         0.0780
      8 N2          0.0583   -1.7574    3.3396 N.ar      1 <0>        -0.2418
      9 N3          0.0702   -2.9571    2.8877 N.ar      1 <0>        -0.3095
     10 C7          0.0531   -3.2411    1.5963 C.ar      1 <0>         0.2929
     11 O1          0.0688   -4.5320    1.1773 O.3       1 <0>        -0.2990
     12 C8          0.0870   -5.5420    2.1880 C.3       1 <0>         0.1117
     13 C9          0.1025   -6.9019    1.5389 C.ar      1 <0>        -0.1092
     14 C10        -1.0878   -7.5390    1.2415 C.ar      1 <0>        -0.0652
     15 C11        -1.0748   -8.7859    0.6459 C.ar      1 <0>        -0.1565
     16 C12         0.1310   -9.3972    0.3469 C.ar      1 <0>         0.1111
     17 C13         1.3226   -8.7582    0.6452 C.ar      1 <0>        -0.1554
     18 C14         1.3071   -7.5090    1.2361 C.ar      1 <0>        -0.0636
     19 F1          0.1450  -10.6164   -0.2350 F         1 <0>        -0.1363
     20 C15         0.0390   -3.2544   -1.6151 C.3       1 <0>         0.1355
     21 C16         1.4853   -3.6334   -1.9398 C.3       1 <0>        -0.1743
     22 H1          2.2034   -2.8138   -1.9131 H         1 <0>         0.1079
     23 C17         1.9715   -5.0133   -1.4923 C.3       1 <0>        -0.1608
     24 C18         1.7111   -4.7370   -2.9752 C.3       1 <0>        -0.1412
     25 H2          0.8292   -5.1931   -3.4250 H         1 <0>         0.1059
     26 C19         2.9278   -4.6059   -3.8935 C.3       1 <0>        -0.1240
     27 C20        -0.0054   -0.3145   -2.5101 C.3       1 <0>        -0.0952
     28 H3          1.0042    1.8801    0.0026 H         1 <0>         0.0685
     29 H4         -0.5455    1.8639   -0.8728 H         1 <0>         0.0677
     30 H5         -0.5286    1.8543    0.9071 H         1 <0>         0.0685
     31 H6          0.0275    0.2941    2.9784 H         1 <0>         0.1734
     32 H7          0.9782   -5.4233    2.8042 H         1 <0>         0.0819
     33 H8         -0.8016   -5.4474    2.8122 H         1 <0>         0.0813
     34 H9         -2.0283   -7.0621    1.4751 H         1 <0>         0.1350
     35 H10        -2.0048   -9.2836    0.4140 H         1 <0>         0.1392
     36 H11         2.2638   -9.2342    0.4128 H         1 <0>         0.1393
     37 H12         2.2363   -7.0084    1.4648 H         1 <0>         0.1352
     38 H13        -0.4617   -4.1010   -1.1452 H         1 <0>         0.0995
     39 H14        -0.4822   -2.9889   -2.5349 H         1 <0>         0.0960
     40 H15         3.0095   -5.1016   -1.1716 H         1 <0>         0.0938
     41 H16         1.2610   -5.6512   -0.9666 H         1 <0>         0.1012
     42 H17         3.8365   -4.5851   -3.2920 H         1 <0>         0.0566
     43 H18         2.9623   -5.4563   -4.5746 H         1 <0>         0.0637
     44 H19         2.8513   -3.6829   -4.4684 H         1 <0>         0.0603
     45 H20         1.0189   -0.1839   -2.8591 H         1 <0>         0.0828
     46 H21        -0.5124   -1.0474   -3.1377 H         1 <0>         0.0715
     47 H22        -0.5324    0.6380   -2.5656 H         1 <0>         0.0899
@<TRIPOS>BOND
     1    1    2 1
     2    1   28 1
     3    1   29 1
     4    1   30 1
     5    2    6 1
     6    2    3 2
     7    3    4 1
     8    3   27 1
     9    4    5 1
    10    4   20 1
    11    5   10 ar
    12    5    6 ar
    13    6    7 ar
    14    7    8 ar
    15    7   31 1
    16    8    9 ar
    17    9   10 ar
    18   10   11 1
    19   11   12 1
    20   12   13 1
    21   12   32 1
    22   12   33 1
    23   13   18 ar
    24   13   14 ar
    25   14   15 ar
    26   14   34 1
    27   15   16 ar
    28   15   35 1
    29   16   17 ar
    30   16   19 1
    31   17   18 ar
    32   17   36 1
    33   18   37 1
    34   20   21 1
    35   20   38 1
    36   20   39 1
    37   21   22 1
    38   21   24 1
    39   21   23 1
    40   23   24 1
    41   23   40 1
    42   23   41 1
    43   24   25 1
    44   24   26 1
    45   26   42 1
    46   26   43 1
    47   26   44 1
    48   27   45 1
    49   27   46 1
    50   27   47 1
@<TRIPOS>MOLECULE
CHEMBL522228
   43    46     0     0     0
SMALL
USER_CHARGES

@<TRIPOS>ATOM
      1 C1         -0.0168    1.3892    0.0097 C.ar      1 <0>        -0.1102
      2 C2          1.1709    2.0865    0.0021 C.ar      1 <0>        -0.1065
      3 C3          2.3881    1.4157   -0.0111 C.ar      1 <0>        -0.0670
      4 C4          2.4125    0.0376   -0.0136 C.ar      1 <0>        -0.0665
      5 C5          1.2216   -0.6727   -0.0102 C.ar      1 <0>        -0.1090
      6 C6          0.0021   -0.0041    0.0020 C.ar      1 <0>        -0.0435
      7 C7         -1.2693   -0.7687    0.0063 C.ar      1 <0>        -0.0350
      8 C8         -1.2456   -2.1621    0.0045 C.ar      1 <0>        -0.1029
      9 C9         -2.4285   -2.8729    0.0090 C.ar      1 <0>        -0.1260
     10 C10        -3.6427   -2.2032    0.0154 C.ar      1 <0>         0.0813
     11 C11        -3.6723   -0.8110    0.0173 C.ar      1 <0>         0.0851
     12 C12        -2.4890   -0.0946    0.0181 C.ar      1 <0>        -0.1225
     13 O1         -4.8641   -0.1560    0.0236 O.3       1 <0>        -0.4868
     14 O2         -4.8060   -2.9070    0.0194 O.3       1 <0>        -0.4874
     15 C13         3.6966   -0.7504   -0.0113 C.3       1 <0>        -0.0834
     16 C14         4.8678    0.1291   -0.4438 C.3       1 <0>        -0.1199
     17 C15         4.8484    1.4098    0.3989 C.3       1 <0>        -0.1118
     18 C16         3.6443    2.2476   -0.0261 C.3       1 <0>        -0.0097
     19 C17         3.4846    3.4060    0.9245 C.ar      1 <0>        -0.0292
     20 C18         3.2560    3.1896    2.2748 C.ar      1 <0>        -0.1614
     21 C19         3.1146    4.2766    3.1166 C.ar      1 <0>         0.1004
     22 N1          3.1943    5.5069    2.6487 N.ar      1 <0>        -0.4872
     23 C20         3.4107    5.7502    1.3708 C.ar      1 <0>         0.1011
     24 C21         3.5684    4.7134    0.4706 C.ar      1 <0>        -0.1721
     25 H1         -0.9576    1.9194    0.0260 H         1 <0>         0.1250
     26 H2          1.1563    3.1664    0.0061 H         1 <0>         0.1208
     27 H3          1.2412   -1.7525   -0.0174 H         1 <0>         0.1265
     28 H4         -0.3011   -2.6859   -0.0009 H         1 <0>         0.1337
     29 H5         -2.4085   -3.9527    0.0072 H         1 <0>         0.1370
     30 H6         -2.5103    0.9852    0.0241 H         1 <0>         0.1365
     31 H7         -5.2048    0.0323    0.9088 H         1 <0>         0.3887
     32 H8         -5.1387   -3.1120    0.9039 H         1 <0>         0.3886
     33 H9          3.8837   -1.1294    0.9934 H         1 <0>         0.0787
     34 H10         3.6042   -1.5901   -0.7000 H         1 <0>         0.0774
     35 H11         5.8055   -0.4027   -0.2820 H         1 <0>         0.0733
     36 H12         4.7664    0.3825   -1.4991 H         1 <0>         0.0684
     37 H13         4.7629    1.1532    1.4548 H         1 <0>         0.0709
     38 H14         5.7659    1.9738    0.2307 H         1 <0>         0.0721
     39 H15         3.8100    2.6302   -1.0332 H         1 <0>         0.0948
     40 H16         3.1889    2.1844    2.6639 H         1 <0>         0.1320
     41 H17         2.9363    4.1166    4.1697 H         1 <0>         0.1549
     42 H18         3.4695    6.7714    1.0243 H         1 <0>         0.1560
     43 H19         3.7503    4.9190   -0.5739 H         1 <0>         0.1348
@<TRIPOS>BOND
     1    1    6 ar
     2    1    2 ar
     3    1   25 1
     4    2    3 ar
     5    2   26 1
     6    3   18 1
     7    3    4 ar
     8    4    5 ar
     9    4   15 1
    10    5    6 ar
    11    5   27 1
    12    6    7 1
    13    7   12 ar
    14    7    8 ar
    15    8    9 ar
    16    8   28 1
    17    9   10 ar
    18    9   29 1
    19   10   11 ar
    20   10   14 1
    21   11   12 ar
    22   11   13 1
    23   12   30 1
    24   13   31 1
    25   14   32 1
    26   15   16 1
    27   15   33 1
    28   15   34 1
    29   16   17 1
    30   16   35 1
    31   16   36 1
    32   17   18 1
    33   17   37 1
    34   17   38 1
    35   18   19 1
    36   18   39 1
    37   19   24 ar
    38   19   20 ar
    39   20   21 ar
    40   20   40 1
    41   21   22 ar
    42   21   41 1
    43   22   23 ar
    44   23   24 ar
    45   23   42 1
    46   24   43 1
@<TRIPOS>MOLECULE
CHEMBL522228
   43    46     0     0     0
SMALL
USER_CHARGES

@<TRIPOS>ATOM
      1 C1         -0.0168    1.3892    0.0097 C.ar      1 <0>        -0.1102
      2 C2          1.1709    2.0865    0.0021 C.ar      1 <0>        -0.1064
      3 C3          2.3881    1.4157   -0.0152 C.ar      1 <0>        -0.0672
      4 C4          2.4124    0.0376   -0.0279 C.ar      1 <0>        -0.0665
      5 C5          1.2216   -0.6726   -0.0162 C.ar      1 <0>        -0.1091
      6 C6          0.0021   -0.0041    0.0020 C.ar      1 <0>        -0.0434
      7 C7         -1.2693   -0.7687    0.0137 C.ar      1 <0>        -0.0350
      8 C8         -1.2455   -2.1621    0.0119 C.ar      1 <0>        -0.1029
      9 C9         -2.4283   -2.8730    0.0232 C.ar      1 <0>        -0.1260
     10 C10        -3.6425   -2.2033    0.0366 C.ar      1 <0>         0.0813
     11 C11        -3.6722   -0.8111    0.0386 C.ar      1 <0>         0.0851
     12 C12        -2.4889   -0.0947    0.0325 C.ar      1 <0>        -0.1225
     13 O1         -4.8639   -0.1561    0.0517 O.3       1 <0>        -0.4867
     14 O2         -4.8058   -2.9071    0.0474 O.3       1 <0>        -0.4874
     15 C13         3.6961   -0.7501   -0.0633 C.3       1 <0>        -0.0836
     16 C14         4.8755    0.1248    0.3563 C.3       1 <0>        -0.1197
     17 C15         4.8401    1.4144   -0.4721 C.3       1 <0>        -0.1120
     18 C16         3.6444    2.2476   -0.0152 C.3       1 <0>        -0.0094
     19 C17         3.4667    3.4160   -0.9502 C.ar      1 <0>        -0.0296
     20 C18         3.2010    3.2142   -2.2959 C.ar      1 <0>        -0.1612
     21 C19         3.0441    4.3102   -3.1231 C.ar      1 <0>         0.1008
     22 N1          3.1448    5.5354   -2.6460 N.ar      1 <0>        -0.4870
     23 C20         3.3966    5.7649   -1.3720 C.ar      1 <0>         0.1009
     24 C21         3.5593    4.7185   -0.4839 C.ar      1 <0>        -0.1724
     25 H1         -0.9576    1.9194    0.0260 H         1 <0>         0.1250
     26 H2          1.1563    3.1664    0.0093 H         1 <0>         0.1209
     27 H3          1.2411   -1.7524   -0.0214 H         1 <0>         0.1264
     28 H4         -0.3011   -2.6859    0.0011 H         1 <0>         0.1337
     29 H5         -2.4083   -3.9528    0.0214 H         1 <0>         0.1370
     30 H6         -2.5102    0.9851    0.0385 H         1 <0>         0.1365
     31 H7         -5.1994    0.0322    0.9388 H         1 <0>         0.3886
     32 H8         -5.1333   -3.1121    0.9338 H         1 <0>         0.3885
     33 H9          3.6167   -1.5972    0.6181 H         1 <0>         0.0773
     34 H10         3.8640   -1.1183   -1.0754 H         1 <0>         0.0788
     35 H11         4.7943    0.3668    1.4159 H         1 <0>         0.0682
     36 H12         5.8098   -0.4051    0.1708 H         1 <0>         0.0732
     37 H13         5.7607    1.9767   -0.3155 H         1 <0>         0.0721
     38 H14         4.7344    1.1692   -1.5289 H         1 <0>         0.0710
     39 H15         3.8294    2.6193    0.9926 H         1 <0>         0.0947
     40 H16         3.1180    2.2132   -2.6928 H         1 <0>         0.1321
     41 H17         2.8369    4.1615   -4.1726 H         1 <0>         0.1551
     42 H18         3.4723    6.7823   -1.0178 H         1 <0>         0.1559
     43 H19         3.7604    4.9129    0.5592 H         1 <0>         0.1346
@<TRIPOS>BOND
     1    1    6 ar
     2    1    2 ar
     3    1   25 1
     4    2    3 ar
     5    2   26 1
     6    3   18 1
     7    3    4 ar
     8    4    5 ar
     9    4   15 1
    10    5    6 ar
    11    5   27 1
    12    6    7 1
    13    7   12 ar
    14    7    8 ar
    15    8    9 ar
    16    8   28 1
    17    9   10 ar
    18    9   29 1
    19   10   11 ar
    20   10   14 1
    21   11   12 ar
    22   11   13 1
    23   12   30 1
    24   13   31 1
    25   14   32 1
    26   15   16 1
    27   15   33 1
    28   15   34 1
    29   16   17 1
    30   16   35 1
    31   16   36 1
    32   17   18 1
    33   17   37 1
    34   17   38 1
    35   18   19 1
    36   18   39 1
    37   19   24 ar
    38   19   20 ar
    39   20   21 ar
    40   20   40 1
    41   21   22 ar
    42   21   41 1
    43   22   23 ar
    44   23   24 ar
    45   23   42 1
    46   24   43 1
@<TRIPOS>MOLECULE
CHEMBL487569
   48    50     0     0     0
SMALL
USER_CHARGES

@<TRIPOS>ATOM
      1 C1         -0.2213    1.6554   -0.8165 C.3       1 <0>        -0.0740
      2 C2         -0.0896    0.1724   -0.5836 C.2       1 <0>         0.0919
      3 C3         -0.2436   -0.8259   -1.5530 C.2       1 <0>        -0.2639
      4 C4         -0.0484   -2.0227   -0.9543 C.2       1 <0>         0.1202
      5 N1          0.2215   -1.7872    0.3569 N.pl3     1 <0>        -0.3197
      6 N2          0.1935   -0.4009    0.5572 N.2       1 <0>        -0.2601
      7 C5          0.4837   -2.7530    1.3286 C.ar      1 <0>         0.6011
      8 N3          0.5935   -2.3802    2.5921 N.ar      1 <0>        -0.5220
      9 C6          0.8435   -3.2742    3.5481 C.ar      1 <0>         0.2714
     10 C7          0.9889   -4.6157    3.1985 C.ar      1 <0>        -0.2712
     11 C8          0.8657   -4.9663    1.8561 C.ar      1 <0>         0.4396
     12 N4          0.6103   -4.0175    0.9608 N.ar      1 <0>        -0.5316
     13 N5          1.0031   -6.2920    1.4584 N.am      1 <0>        -0.6542
     14 C9          0.9874   -6.6076    0.1482 C.2       1 <0>         0.5013
     15 O1          0.7609   -5.7506   -0.6793 O.2       1 <0>        -0.4678
     16 C10         1.2514   -8.0256   -0.2884 C.3       1 <0>        -0.1687
     17 C11         0.9658   -2.8479    4.9636 C.ar      1 <0>         0.0147
     18 C12         1.2330   -3.7890    5.9555 C.ar      1 <0>        -0.1583
     19 C13         1.3466   -3.3875    7.2767 C.ar      1 <0>         0.1621
     20 C14         1.1942   -2.0503    7.6124 C.ar      1 <0>        -0.2777
     21 C15         0.9277   -1.1109    6.6273 C.ar      1 <0>         0.1622
     22 C16         0.8195   -1.5048    5.3033 C.ar      1 <0>        -0.1329
     23 O2          0.7786    0.1983    6.9604 O.3       1 <0>        -0.3083
     24 C17         0.9092    0.5349    8.3430 C.3       1 <0>         0.0250
     25 O3          1.6072   -4.3050    8.2449 O.3       1 <0>        -0.3114
     26 C18         1.7114   -3.8216    9.5856 C.3       1 <0>         0.0253
     27 C19        -0.1179   -3.3728   -1.6200 C.3       1 <0>        -0.0816
     28 H1          0.7491    2.0672   -1.0937 H         1 <0>         0.0817
     29 H2         -0.9353    1.8350   -1.6204 H         1 <0>         0.0821
     30 H3         -0.5730    2.1367    0.0960 H         1 <0>         0.0767
     31 H4         -0.4776   -0.6681   -2.5955 H         1 <0>         0.1586
     32 H5          1.1923   -5.3645    3.9497 H         1 <0>         0.1596
     33 H6          1.1102   -6.9894    2.1241 H         1 <0>         0.4253
     34 H7          1.4328   -8.6479    0.5880 H         1 <0>         0.0795
     35 H8          0.3859   -8.4057   -0.8311 H         1 <0>         0.1022
     36 H9          2.1265   -8.0489   -0.9379 H         1 <0>         0.1023
     37 H10         1.3511   -4.8304    5.6948 H         1 <0>         0.1398
     38 H11         1.2829   -1.7400    8.6431 H         1 <0>         0.1390
     39 H12         0.6167   -0.7721    4.5362 H         1 <0>         0.1510
     40 H13         1.9030    0.2551    8.6927 H         1 <0>         0.0563
     41 H14         0.7680    1.6082    8.4706 H         1 <0>         0.1048
     42 H15         0.1564   -0.0018    8.9203 H         1 <0>         0.0563
     43 H16         1.9209   -4.6545   10.2569 H         1 <0>         0.1046
     44 H17         2.5197   -3.0930    9.6474 H         1 <0>         0.0568
     45 H18         0.7730   -3.3487    9.8752 H         1 <0>         0.0567
     46 H19         0.8858   -3.6910   -1.9021 H         1 <0>         0.0848
     47 H20        -0.5478   -4.0973   -0.9284 H         1 <0>         0.0992
     48 H21        -0.7420   -3.3068   -2.5113 H         1 <0>         0.0714
@<TRIPOS>BOND
     1    1    2 1
     2    1   28 1
     3    1   29 1
     4    1   30 1
     5    2    6 2
     6    2    3 1
     7    3    4 2
     8    3   31 1
     9    4    5 1
    10    4   27 1
    11    5    6 1
    12    5    7 1
    13    7   12 ar
    14    7    8 ar
    15    8    9 ar
    16    9   10 ar
    17    9   17 1
    18   10   11 ar
    19   10   32 1
    20   11   12 ar
    21   11   13 1
    22   13   14 am
    23   13   33 1
    24   14   15 2
    25   14   16 1
    26   16   34 1
    27   16   35 1
    28   16   36 1
    29   17   22 ar
    30   17   18 ar
    31   18   19 ar
    32   18   37 1
    33   19   20 ar
    34   19   25 1
    35   20   21 ar
    36   20   38 1
    37   21   22 ar
    38   21   23 1
    39   22   39 1
    40   23   24 1
    41   24   40 1
    42   24   41 1
    43   24   42 1
    44   25   26 1
    45   26   43 1
    46   26   44 1
    47   26   45 1
    48   27   46 1
    49   27   47 1
    50   27   48 1
@<TRIPOS>MOLECULE
CHEMBL392609
   49    52     0     0     0
SMALL
USER_CHARGES

@<TRIPOS>ATOM
      1 C1         -0.0167    1.3777    0.0096 C.ar      1 <0>        -0.1008
      2 C2          1.1710    2.0855    0.0021 C.ar      1 <0>        -0.1078
      3 C3          2.3777    1.4116   -0.0130 C.ar      1 <0>        -0.1135
      4 C4          2.3977    0.0294   -0.0210 C.ar      1 <0>        -0.1005
      5 C5          1.2098   -0.6793   -0.0135 C.ar      1 <0>        -0.0287
      6 C6          0.0021   -0.0041    0.0020 C.ar      1 <0>        -0.1052
      7 Cl1         1.2341   -2.4151   -0.0242 Cl        1 <0>        -0.0612
      8 C7          3.6718    2.1839   -0.0212 C.3       1 <0>         0.1181
      9 C8          4.2162    2.2369   -1.4254 C.2       1 <0>         0.5296
     10 O1          5.1018    1.4794   -1.7615 O.2       1 <0>        -0.5205
     11 N1          3.7191    3.1261   -2.3078 N.am      1 <0>        -0.6097
     12 C9          2.6505    4.0543   -1.9138 C.3       1 <0>         0.1050
     13 C10         3.0948    5.4840   -2.2381 C.3       1 <0>        -0.1446
     14 C11         3.4884    5.5691   -3.7146 C.3       1 <0>         0.1566
     15 C12         4.6619    4.6251   -3.9866 C.3       1 <0>        -0.1509
     16 C13         4.2396    3.1898   -3.6803 C.3       1 <0>         0.1134
     17 N2          3.8825    6.9429   -4.0363 N.pl3     1 <0>        -0.7465
     18 C14         3.7811    7.4102   -5.3515 C.ar      1 <0>         0.1820
     19 C15         3.2988    6.5663   -6.3529 C.ar      1 <0>        -0.1309
     20 C16         3.1926    7.0024   -7.6419 C.ar      1 <0>        -0.0966
     21 C17         3.5670    8.3027   -7.9723 C.ar      1 <0>         0.0810
     22 C18         4.0544    9.1627   -6.9702 C.ar      1 <0>        -0.1309
     23 C19         4.1533    8.7053   -5.6509 C.ar      1 <0>        -0.1309
     24 C20         4.3539   10.4310   -7.6271 C.2       1 <0>         0.0629
     25 N3          4.0629   10.3039   -8.8903 N.2       1 <0>        -0.2447
     26 N4          3.5781    9.0168   -9.1444 N.pl3     1 <0>        -0.5127
     27 H1          3.2957    8.6824  -10.0100 H         1 <0>         0.4383
     28 N5          4.6444    1.5190    0.8563 N.3       1 <0>        -0.8213
     29 H2         -0.9592    1.9048    0.0259 H         1 <0>         0.1375
     30 H3          1.1559    3.1654    0.0076 H         1 <0>         0.1335
     31 H4          3.3407   -0.4970   -0.0336 H         1 <0>         0.1341
     32 H5         -0.9257   -0.5568    0.0079 H         1 <0>         0.1369
     33 H6          3.4924    3.1974    0.3374 H         1 <0>         0.1147
     34 H7          1.7408    3.8200   -2.4667 H         1 <0>         0.0770
     35 H8          2.4638    3.9635   -0.8437 H         1 <0>         0.0908
     36 H9          2.2743    6.1737   -2.0400 H         1 <0>         0.0861
     37 H10         3.9509    5.7485   -1.6175 H         1 <0>         0.0760
     38 H11         2.6392    5.2806   -4.3340 H         1 <0>         0.0805
     39 H12         4.9569    4.7035   -5.0330 H         1 <0>         0.0814
     40 H13         5.5033    4.8977   -3.3495 H         1 <0>         0.0722
     41 H14         5.1011    2.5288   -3.7754 H         1 <0>         0.0969
     42 H15         3.4623    2.8835   -4.3805 H         1 <0>         0.0694
     43 H16         4.2136    7.5287   -3.3376 H         1 <0>         0.3996
     44 H17         3.0066    5.5565   -6.1052 H         1 <0>         0.1291
     45 H18         2.8180    6.3383   -8.4067 H         1 <0>         0.1261
     46 H19         4.5219    9.3591   -4.8743 H         1 <0>         0.1262
     47 H20         4.7465   11.3171   -7.1506 H         1 <0>         0.1952
     48 H21         4.3313    1.5280    1.8154 H         1 <0>         0.3536
     49 H22         4.8278    0.5770    0.5446 H         1 <0>         0.3541
@<TRIPOS>BOND
     1    1    6 ar
     2    1    2 ar
     3    1   29 1
     4    2    3 ar
     5    2   30 1
     6    3    4 ar
     7    3    8 1
     8    4    5 ar
     9    4   31 1
    10    5    6 ar
    11    5    7 1
    12    6   32 1
    13    8    9 1
    14    8   28 1
    15    8   33 1
    16    9   10 2
    17    9   11 am
    18   11   16 1
    19   11   12 1
    20   12   13 1
    21   12   34 1
    22   12   35 1
    23   13   14 1
    24   13   36 1
    25   13   37 1
    26   14   15 1
    27   14   17 1
    28   14   38 1
    29   15   16 1
    30   15   39 1
    31   15   40 1
    32   16   41 1
    33   16   42 1
    34   17   18 1
    35   17   43 1
    36   18   23 ar
    37   18   19 ar
    38   19   20 ar
    39   19   44 1
    40   20   21 ar
    41   20   45 1
    42   21   26 1
    43   21   22 ar
    44   22   23 ar
    45   22   24 1
    46   23   46 1
    47   24   25 2
    48   24   47 1
    49   25   26 1
    50   26   27 1
    51   28   48 1
    52   28   49 1
@<TRIPOS>MOLECULE
CHEMBL392609
   49    52     0     0     0
SMALL
USER_CHARGES

@<TRIPOS>ATOM
      1 C1         -0.0167    1.3777    0.0096 C.ar      1 <0>        -0.1020
      2 C2          1.1710    2.0855    0.0021 C.ar      1 <0>        -0.1100
      3 C3          2.3777    1.4116   -0.0130 C.ar      1 <0>        -0.0646
      4 C4          2.3977    0.0294   -0.0210 C.ar      1 <0>        -0.0880
      5 C5          1.2098   -0.6793   -0.0135 C.ar      1 <0>        -0.0308
      6 C6          0.0021   -0.0041    0.0020 C.ar      1 <0>        -0.1062
      7 Cl1         1.2341   -2.4151   -0.0242 Cl        1 <0>        -0.0637
      8 C7          3.6718    2.1839   -0.0212 C.3       1 <0>         0.1169
      9 C8          4.2162    2.2369   -1.4254 C.2       1 <0>         0.4878
     10 O1          5.1018    1.4794   -1.7615 O.2       1 <0>        -0.5362
     11 N1          3.7191    3.1261   -2.3078 N.am      1 <0>        -0.6049
     12 C9          2.6505    4.0543   -1.9138 C.3       1 <0>         0.1032
     13 C10         3.0948    5.4840   -2.2381 C.3       1 <0>        -0.1440
     14 C11         3.4884    5.5691   -3.7146 C.3       1 <0>         0.1552
     15 C12         4.6619    4.6251   -3.9866 C.3       1 <0>        -0.1504
     16 C13         4.2396    3.1898   -3.6803 C.3       1 <0>         0.1096
     17 N2          3.8825    6.9429   -4.0363 N.pl3     1 <0>        -0.7482
     18 C14         3.7811    7.4101   -5.3512 C.ar      1 <0>         0.1840
     19 C15         3.2948    6.5510   -6.3472 C.ar      1 <0>        -0.1171
     20 C16         3.1748    6.9498   -7.6369 C.ar      1 <0>        -0.0628
     21 C17         3.5458    8.2625   -8.0008 C.ar      1 <0>         0.0722
     22 C18         4.0563    9.1660   -6.9583 C.ar      1 <0>        -0.1580
     23 C19         4.1519    8.6904   -5.6325 C.ar      1 <0>        -0.1542
     24 C20         4.3376   10.3659   -7.5840 C.2       1 <0>         0.0534
     25 N3          4.0364   10.2334   -8.8843 N.pl3     1 <0>        -0.4264
     26 N4          3.5524    8.9440   -9.1328 N.2       1 <0>        -0.2976
     27 H1          4.1385   10.9284   -9.5533 H         1 <0>         0.4431
     28 N5          4.6444    1.5190    0.8563 N.3       1 <0>        -0.8147
     29 H2         -0.9592    1.9048    0.0259 H         1 <0>         0.1372
     30 H3          1.1559    3.1654    0.0076 H         1 <0>         0.1323
     31 H4          3.3407   -0.4970   -0.0336 H         1 <0>         0.1336
     32 H5         -0.9257   -0.5568    0.0079 H         1 <0>         0.1360
     33 H6          3.4924    3.1974    0.3374 H         1 <0>         0.1154
     34 H7          1.7408    3.8200   -2.4667 H         1 <0>         0.0792
     35 H8          2.4638    3.9635   -0.8437 H         1 <0>         0.0927
     36 H9          2.2743    6.1737   -2.0400 H         1 <0>         0.0872
     37 H10         3.9509    5.7485   -1.6175 H         1 <0>         0.0744
     38 H11         2.6392    5.2806   -4.3340 H         1 <0>         0.0813
     39 H12         4.9569    4.7035   -5.0330 H         1 <0>         0.0819
     40 H13         5.5033    4.8977   -3.3495 H         1 <0>         0.0703
     41 H14         5.1011    2.5288   -3.7754 H         1 <0>         0.0956
     42 H15         3.4623    2.8835   -4.3805 H         1 <0>         0.0707
     43 H16         4.2136    7.5287   -3.3376 H         1 <0>         0.3984
     44 H17         3.0085    5.5447   -6.0794 H         1 <0>         0.1282
     45 H18         2.7974    6.2663   -8.3831 H         1 <0>         0.1315
     46 H19         4.5198    9.3352   -4.8481 H         1 <0>         0.1194
     47 H20         4.7300   11.2533   -7.1097 H         1 <0>         0.1845
     48 H21         4.8278    0.5770    0.5446 H         1 <0>         0.3528
     49 H22         5.4988    2.0520    0.9185 H         1 <0>         0.3516
@<TRIPOS>BOND
     1    1    6 ar
     2    1    2 ar
     3    1   29 1
     4    2    3 ar
     5    2   30 1
     6    3    4 ar
     7    3    8 1
     8    4    5 ar
     9    4   31 1
    10    5    6 ar
    11    5    7 1
    12    6   32 1
    13    8    9 1
    14    8   28 1
    15    8   33 1
    16    9   10 2
    17    9   11 am
    18   11   16 1
    19   11   12 1
    20   12   13 1
    21   12   34 1
    22   12   35 1
    23   13   14 1
    24   13   36 1
    25   13   37 1
    26   14   15 1
    27   14   17 1
    28   14   38 1
    29   15   16 1
    30   15   39 1
    31   15   40 1
    32   16   41 1
    33   16   42 1
    34   17   18 1
    35   17   43 1
    36   18   23 ar
    37   18   19 ar
    38   19   20 ar
    39   19   44 1
    40   20   21 ar
    41   20   45 1
    42   21   22 ar
    43   21   26 2
    44   22   23 ar
    45   22   24 2
    46   23   46 1
    47   24   47 1
    48   24   25 1
    49   25   27 1
    50   25   26 1
    51   28   48 1
    52   28   49 1
@<TRIPOS>MOLECULE
CHEMBL392609
   49    52     0     0     0
SMALL
USER_CHARGES

@<TRIPOS>ATOM
      1 C1         -0.0167    1.3777    0.0096 C.ar      1 <0>        -0.1020
      2 C2          1.1710    2.0855    0.0021 C.ar      1 <0>        -0.1103
      3 C3          2.3777    1.4116   -0.0130 C.ar      1 <0>        -0.0648
      4 C4          2.3977    0.0294   -0.0210 C.ar      1 <0>        -0.0880
      5 C5          1.2098   -0.6793   -0.0135 C.ar      1 <0>        -0.0308
      6 C6          0.0021   -0.0041    0.0020 C.ar      1 <0>        -0.1062
      7 Cl1         1.2341   -2.4151   -0.0242 Cl        1 <0>        -0.0634
      8 C7          3.6718    2.1839   -0.0212 C.3       1 <0>         0.1170
      9 C8          4.2429    2.2220    1.3728 C.2       1 <0>         0.4879
     10 O1          5.1346    1.4610    1.6839 O.2       1 <0>        -0.5359
     11 N1          3.7627    3.1016    2.2740 N.am      1 <0>        -0.6055
     12 C9          2.6786    4.0256    1.9140 C.3       1 <0>         0.1031
     13 C10         3.1218    5.4558    2.2377 C.3       1 <0>        -0.1442
     14 C11         3.5520    5.5326    3.7044 C.3       1 <0>         0.1562
     15 C12         4.7380    4.5945    3.9397 C.3       1 <0>        -0.1497
     16 C13         4.3093    3.1507    3.6369 C.3       1 <0>         0.1097
     17 N2          3.9451    6.9067    4.0263 N.pl3     1 <0>        -0.7467
     18 C14         3.8740    7.3636    5.3472 C.ar      1 <0>         0.1813
     19 C15         3.4333    6.5057    6.3559 C.ar      1 <0>        -0.1309
     20 C16         3.3562    6.9319    7.6502 C.ar      1 <0>        -0.0965
     21 C17         3.7189    8.2359    7.9789 C.ar      1 <0>         0.0813
     22 C18         4.1653    9.1097    6.9696 C.ar      1 <0>        -0.1310
     23 C19         4.2453    8.6590    5.6468 C.ar      1 <0>        -0.1304
     24 C20         4.4625   10.3785    7.6265 C.2       1 <0>         0.0629
     25 N3          4.2080   10.2390    8.8963 N.2       1 <0>        -0.2444
     26 N4          3.7507    8.9429    9.1550 N.pl3     1 <0>        -0.5125
     27 H1          3.4963    8.5990   10.0256 H         1 <0>         0.4385
     28 N5          4.6274    1.5285   -0.9241 N.3       1 <0>        -0.8147
     29 H2         -0.9592    1.9048    0.0259 H         1 <0>         0.1372
     30 H3          1.1559    3.1654    0.0076 H         1 <0>         0.1325
     31 H4          3.3407   -0.4970   -0.0336 H         1 <0>         0.1337
     32 H5         -0.9257   -0.5568    0.0079 H         1 <0>         0.1361
     33 H6          3.4857    3.2012   -0.3655 H         1 <0>         0.1155
     34 H7          2.4656    3.9414    0.8483 H         1 <0>         0.0934
     35 H8          1.7846    3.7813    2.4878 H         1 <0>         0.0789
     36 H9          3.9603    5.7305    1.5977 H         1 <0>         0.0750
     37 H10         2.2921    6.1415    2.0655 H         1 <0>         0.0874
     38 H11         2.7205    5.2340    4.3428 H         1 <0>         0.0810
     39 H12         5.5613    4.8773    3.2837 H         1 <0>         0.0712
     40 H13         5.0587    4.6672    4.9789 H         1 <0>         0.0808
     41 H14         3.5456    2.8365    4.3484 H         1 <0>         0.0709
     42 H15         5.1726    2.4891    3.7084 H         1 <0>         0.0959
     43 H16         4.2548    7.4998    3.3240 H         1 <0>         0.3995
     44 H17         3.1498    5.4931    6.1094 H         1 <0>         0.1289
     45 H18         3.0131    6.2572    8.4205 H         1 <0>         0.1263
     46 H19         4.5907    9.3206    4.8662 H         1 <0>         0.1262
     47 H20         4.8286   11.2735    7.1455 H         1 <0>         0.1953
     48 H21         5.4805    2.0623   -0.9970 H         1 <0>         0.3518
     49 H22         4.8166    0.5833   -0.6261 H         1 <0>         0.3528
@<TRIPOS>BOND
     1    1    6 ar
     2    1    2 ar
     3    1   29 1
     4    2    3 ar
     5    2   30 1
     6    3    4 ar
     7    3    8 1
     8    4    5 ar
     9    4   31 1
    10    5    6 ar
    11    5    7 1
    12    6   32 1
    13    8    9 1
    14    8   28 1
    15    8   33 1
    16    9   10 2
    17    9   11 am
    18   11   16 1
    19   11   12 1
    20   12   13 1
    21   12   34 1
    22   12   35 1
    23   13   14 1
    24   13   36 1
    25   13   37 1
    26   14   15 1
    27   14   17 1
    28   14   38 1
    29   15   16 1
    30   15   39 1
    31   15   40 1
    32   16   41 1
    33   16   42 1
    34   17   18 1
    35   17   43 1
    36   18   23 ar
    37   18   19 ar
    38   19   20 ar
    39   19   44 1
    40   20   21 ar
    41   20   45 1
    42   21   26 1
    43   21   22 ar
    44   22   23 ar
    45   22   24 1
    46   23   46 1
    47   24   25 2
    48   24   47 1
    49   25   26 1
    50   26   27 1
    51   28   48 1
    52   28   49 1
@<TRIPOS>MOLECULE
CHEMBL392609
   49    52     0     0     0
SMALL
USER_CHARGES

@<TRIPOS>ATOM
      1 C1         -0.0167    1.3777    0.0096 C.ar      1 <0>        -0.1008
      2 C2          1.1710    2.0855    0.0021 C.ar      1 <0>        -0.1079
      3 C3          2.3777    1.4116   -0.0130 C.ar      1 <0>        -0.1134
      4 C4          2.3977    0.0294   -0.0210 C.ar      1 <0>        -0.1005
      5 C5          1.2098   -0.6793   -0.0135 C.ar      1 <0>        -0.0286
      6 C6          0.0021   -0.0041    0.0020 C.ar      1 <0>        -0.1052
      7 Cl1         1.2341   -2.4151   -0.0242 Cl        1 <0>        -0.0613
      8 C7          3.6718    2.1839   -0.0212 C.3       1 <0>         0.1180
      9 C8          4.2429    2.2220    1.3728 C.2       1 <0>         0.5294
     10 O1          5.1346    1.4610    1.6839 O.2       1 <0>        -0.5209
     11 N1          3.7627    3.1016    2.2740 N.am      1 <0>        -0.6097
     12 C9          2.6786    4.0256    1.9140 C.3       1 <0>         0.1048
     13 C10         3.1218    5.4558    2.2377 C.3       1 <0>        -0.1441
     14 C11         3.5520    5.5326    3.7044 C.3       1 <0>         0.1553
     15 C12         4.7380    4.5945    3.9397 C.3       1 <0>        -0.1504
     16 C13         4.3093    3.1507    3.6369 C.3       1 <0>         0.1129
     17 N2          3.9451    6.9067    4.0263 N.pl3     1 <0>        -0.7481
     18 C14         3.8740    7.3635    5.3468 C.ar      1 <0>         0.1846
     19 C15         3.4294    6.4904    6.3501 C.ar      1 <0>        -0.1168
     20 C16         3.3408    6.8785    7.6457 C.ar      1 <0>        -0.0632
     21 C17         3.7027    8.1941    8.0083 C.ar      1 <0>         0.0722
     22 C18         4.1694    9.1123    6.9582 C.ar      1 <0>        -0.1576
     23 C19         4.2435    8.6441    5.6283 C.ar      1 <0>        -0.1550
     24 C20         4.4509   10.3120    7.5842 C.2       1 <0>         0.0530
     25 N3          4.1893   10.1660    8.8917 N.pl3     1 <0>        -0.4267
     26 N4          3.7318    8.8678    9.1445 N.2       1 <0>        -0.2978
     27 H1          4.3009   10.8577    9.5626 H         1 <0>         0.4430
     28 N5          4.6274    1.5285   -0.9241 N.3       1 <0>        -0.8213
     29 H2         -0.9592    1.9048    0.0259 H         1 <0>         0.1375
     30 H3          1.1559    3.1654    0.0076 H         1 <0>         0.1337
     31 H4          3.3407   -0.4970   -0.0336 H         1 <0>         0.1341
     32 H5         -0.9257   -0.5568    0.0079 H         1 <0>         0.1368
     33 H6          3.4857    3.2012   -0.3655 H         1 <0>         0.1146
     34 H7          2.4656    3.9414    0.8483 H         1 <0>         0.0905
     35 H8          1.7846    3.7813    2.4878 H         1 <0>         0.0770
     36 H9          3.9603    5.7305    1.5977 H         1 <0>         0.0755
     37 H10         2.2921    6.1415    2.0655 H         1 <0>         0.0857
     38 H11         2.7205    5.2340    4.3428 H         1 <0>         0.0806
     39 H12         5.5613    4.8773    3.2837 H         1 <0>         0.0722
     40 H13         5.0587    4.6672    4.9789 H         1 <0>         0.0810
     41 H14         3.5456    2.8365    4.3484 H         1 <0>         0.0705
     42 H15         5.1726    2.4891    3.7084 H         1 <0>         0.0969
     43 H16         4.2548    7.4998    3.3240 H         1 <0>         0.3985
     44 H17         3.1498    5.4820    6.0833 H         1 <0>         0.1285
     45 H18         2.9946    6.1845    8.3973 H         1 <0>         0.1313
     46 H19         4.5867    9.2973    4.8397 H         1 <0>         0.1194
     47 H20         4.8172   11.2081    7.1055 H         1 <0>         0.1844
     48 H21         4.8166    0.5833   -0.6261 H         1 <0>         0.3540
     49 H22         4.2961    1.5477   -1.8770 H         1 <0>         0.3534
@<TRIPOS>BOND
     1    1    6 ar
     2    1    2 ar
     3    1   29 1
     4    2    3 ar
     5    2   30 1
     6    3    4 ar
     7    3    8 1
     8    4    5 ar
     9    4   31 1
    10    5    6 ar
    11    5    7 1
    12    6   32 1
    13    8    9 1
    14    8   28 1
    15    8   33 1
    16    9   10 2
    17    9   11 am
    18   11   16 1
    19   11   12 1
    20   12   13 1
    21   12   34 1
    22   12   35 1
    23   13   14 1
    24   13   36 1
    25   13   37 1
    26   14   15 1
    27   14   17 1
    28   14   38 1
    29   15   16 1
    30   15   39 1
    31   15   40 1
    32   16   41 1
    33   16   42 1
    34   17   18 1
    35   17   43 1
    36   18   23 ar
    37   18   19 ar
    38   19   20 ar
    39   19   44 1
    40   20   21 ar
    41   20   45 1
    42   21   22 ar
    43   21   26 2
    44   22   23 ar
    45   22   24 2
    46   23   46 1
    47   24   47 1
    48   24   25 1
    49   25   27 1
    50   25   26 1
    51   28   48 1
    52   28   49 1
@<TRIPOS>MOLECULE
CHEMBL207411
   72    75     0     0     0
SMALL
USER_CHARGES

@<TRIPOS>ATOM
      1 C1          0.1103    1.4846   -0.1843 C.3       1 <0>        -0.1814
      2 C2          0.1821   -0.0138    0.1164 C.3       1 <0>         0.0107
      3 H1          0.7577   -0.1743    1.0280 H         1 <0>         0.1562
      4 C3          0.8610   -0.7359   -1.0492 C.3       1 <0>         0.1729
      5 H2          0.3254   -0.5179   -1.9732 H         1 <0>         0.1498
      6 C4          2.2866   -0.2629   -1.1713 C.ar      1 <0>        -0.1849
      7 C5          3.1639   -0.4447   -0.1037 C.ar      1 <0>        -0.1241
      8 C6          4.4575   -0.0292   -0.1814 C.ar      1 <0>        -0.0827
      9 C7          4.9191    0.5924   -1.3546 C.ar      1 <0>         0.0137
     10 C8          6.2475    1.0336   -1.4709 C.ar      1 <0>        -0.1850
     11 C9          6.6610    1.6331   -2.6262 C.ar      1 <0>         0.1889
     12 C10         5.7787    1.8145   -3.6960 C.ar      1 <0>        -0.1701
     13 C11         4.4865    1.3989   -3.6145 C.ar      1 <0>        -0.0653
     14 C12         4.0269    0.7769   -2.4405 C.ar      1 <0>        -0.1007
     15 C13         2.6996    0.3303   -2.3245 C.ar      1 <0>        -0.0235
     16 O1          7.9464    2.0595   -2.7375 O.3       1 <0>        -0.3002
     17 C14         8.3201    2.6791   -3.9698 C.3       1 <0>         0.0854
     18 C15         9.7927    3.0895   -3.9084 C.3       1 <0>        -0.1332
     19 C16         9.9995    4.0767   -2.7579 C.3       1 <0>        -0.1200
     20 C17        10.6586    1.8493   -3.6780 C.3       1 <0>        -0.1200
     21 C18        10.1867    3.7429   -5.2079 C.2       1 <0>         0.5074
     22 O2          9.3658    3.8687   -6.1005 O.co2     1 <0>        -0.6984
     23 O3         11.3265    4.1458   -5.3667 O.co2     1 <0>        -0.6756
     24 N1          0.8449   -2.1803   -0.8047 N.pl3     1 <0>        -0.4298
     25 C19         1.2652   -2.8164    0.3321 C.2       1 <0>         0.0006
     26 C20         1.0747   -4.1348    0.1340 C.2       1 <0>         0.0285
     27 N2          0.5525   -4.2992   -1.0904 N.pl3     1 <0>        -0.4674
     28 C21         0.4073   -3.1324   -1.6566 C.cat     1 <0>         0.2923
     29 N3         -1.1765   -0.5430    0.2957 N.4       1 <0>        -0.3886
     30 C22        -1.9799   -0.2438   -0.8973 C.3       1 <0>        -0.0708
     31 C23        -1.7946    0.0833    1.4720 C.3       1 <0>         0.0184
     32 C24        -3.2130   -0.4610    1.6533 C.3       1 <0>        -0.1376
     33 C25        -3.8568    0.1912    2.8784 C.3       1 <0>        -0.1192
     34 C26        -3.0252   -0.1281    4.1223 C.3       1 <0>        -0.1321
     35 C27        -1.6068    0.4162    3.9410 C.3       1 <0>        -0.1183
     36 C28        -0.9630   -0.2360    2.7159 C.3       1 <0>        -0.1410
     37 H3          1.1184    1.8772   -0.3173 H         1 <0>         0.1223
     38 H4         -0.4653    1.6451   -1.0959 H         1 <0>         0.0929
     39 H5         -0.3734    1.9990    0.6461 H         1 <0>         0.0987
     40 H6          2.8118   -0.9221    0.7989 H         1 <0>         0.1115
     41 H7          5.1259   -0.1761    0.6541 H         1 <0>         0.1375
     42 H8          6.9379    0.8997   -0.6513 H         1 <0>         0.1429
     43 H9          6.1285    2.2916   -4.5996 H         1 <0>         0.1505
     44 H10         3.8160    1.5461   -4.4483 H         1 <0>         0.1381
     45 H11         2.0095    0.4607   -3.1450 H         1 <0>         0.1320
     46 H12         8.1728    1.9758   -4.7894 H         1 <0>         0.0690
     47 H13         7.7032    3.5626   -4.1339 H         1 <0>         0.0694
     48 H14         9.7145    3.6041   -1.8179 H         1 <0>         0.0455
     49 H15        11.0486    4.3691   -2.7141 H         1 <0>         0.0632
     50 H16         9.3826    4.9602   -2.9220 H         1 <0>         0.0446
     51 H17        10.5113    1.1460   -4.4976 H         1 <0>         0.0443
     52 H18        11.7077    2.1417   -3.6342 H         1 <0>         0.0632
     53 H19        10.3736    1.3767   -2.7380 H         1 <0>         0.0454
     54 H20         1.6717   -2.3506    1.2176 H         1 <0>         0.2246
     55 H21         1.3026   -4.9217    0.8377 H         1 <0>         0.2313
     56 H22         0.0062   -2.9574   -2.6440 H         1 <0>         0.2657
     57 H23        -2.0265    0.8354   -1.0426 H         1 <0>         0.1404
     58 H24        -1.5212   -0.7085   -1.7701 H         1 <0>         0.1165
     59 H25        -2.9880   -0.6364   -0.7643 H         1 <0>         0.1371
     60 H26        -1.8353    1.1631    1.3294 H         1 <0>         0.1478
     61 H27        -3.8055   -0.2335    0.7671 H         1 <0>         0.0897
     62 H28        -3.1724   -1.5409    1.7958 H         1 <0>         0.0833
     63 H29        -3.8975    1.2711    2.7359 H         1 <0>         0.0778
     64 H30        -4.8673   -0.1965    3.0076 H         1 <0>         0.0881
     65 H31        -3.4838    0.3366    4.9951 H         1 <0>         0.0836
     66 H32        -2.9845   -1.2079    4.2648 H         1 <0>         0.0697
     67 H33        -1.6475    1.4961    3.7985 H         1 <0>         0.0782
     68 H34        -1.0143    0.1887    4.8272 H         1 <0>         0.0888
     69 H35        -0.9223   -1.3159    2.8584 H         1 <0>         0.0843
     70 H36         0.0475    0.1517    2.5867 H         1 <0>         0.0866
     71 H37        -1.1333   -1.5420    0.4302 H         1 <0>         0.4091
     72 H38         0.3164   -5.1507   -1.4905 H         1 <0>         0.4720
@<TRIPOS>BOND
     1    1    2 1
     2    1   37 1
     3    1   38 1
     4    1   39 1
     5    2    3 1
     6    2    4 1
     7    2   29 1
     8    4    5 1
     9    4    6 1
    10    4   24 1
    11    6   15 ar
    12    6    7 ar
    13    7    8 ar
    14    7   40 1
    15    8    9 ar
    16    8   41 1
    17    9   14 ar
    18    9   10 ar
    19   10   11 ar
    20   10   42 1
    21   11   12 ar
    22   11   16 1
    23   12   13 ar
    24   12   43 1
    25   13   14 ar
    26   13   44 1
    27   14   15 ar
    28   15   45 1
    29   16   17 1
    30   17   18 1
    31   17   46 1
    32   17   47 1
    33   18   19 1
    34   18   20 1
    35   18   21 1
    36   19   48 1
    37   19   49 1
    38   19   50 1
    39   20   51 1
    40   20   52 1
    41   20   53 1
    42   21   22 2
    43   21   23 1
    44   24   28 1
    45   24   25 1
    46   25   26 2
    47   25   54 1
    48   26   27 1
    49   26   55 1
    50   27   28 2
    51   27   72 1
    52   28   56 1
    53   29   30 1
    54   29   31 1
    55   29   71 1
    56   30   57 1
    57   30   58 1
    58   30   59 1
    59   31   36 1
    60   31   32 1
    61   31   60 1
    62   32   33 1
    63   32   61 1
    64   32   62 1
    65   33   34 1
    66   33   63 1
    67   33   64 1
    68   34   35 1
    69   34   65 1
    70   34   66 1
    71   35   36 1
    72   35   67 1
    73   35   68 1
    74   36   69 1
    75   36   70 1
@<TRIPOS>MOLECULE
CHEMBL207411
   71    74     0     0     0
SMALL
USER_CHARGES

@<TRIPOS>ATOM
      1 C1          0.0836    1.4835    0.2167 C.3       1 <0>        -0.1785
      2 C2         -0.1863   -0.0178    0.0964 C.3       1 <0>         0.0123
      3 H1         -1.2606   -0.1979    0.1335 H         1 <0>         0.1472
      4 C3          0.4943   -0.7525    1.2531 C.3       1 <0>         0.1768
      5 H2          1.5575   -0.5126    1.2606 H         1 <0>         0.1257
      6 C4         -0.1271   -0.3217    2.5568 C.ar      1 <0>        -0.1520
      7 C5         -1.4871   -0.5365    2.7730 C.ar      1 <0>        -0.1124
      8 C6         -2.0791   -0.1595    3.9389 C.ar      1 <0>        -0.0935
      9 C7         -1.3103    0.4555    4.9424 C.ar      1 <0>         0.0063
     10 C8         -1.8871    0.8573    6.1584 C.ar      1 <0>        -0.1797
     11 C9         -1.1092    1.4515    7.1107 C.ar      1 <0>         0.1729
     12 C10         0.2552    1.6660    6.8913 C.ar      1 <0>        -0.1755
     13 C11         0.8433    1.2889    5.7246 C.ar      1 <0>        -0.0674
     14 C12         0.0729    0.6734    4.7225 C.ar      1 <0>        -0.0945
     15 C13         0.6495    0.2661    3.5075 C.ar      1 <0>        -0.0443
     16 O1         -1.6684    1.8397    8.2868 O.3       1 <0>        -0.3065
     17 C14        -0.8043    2.4556    9.2439 C.3       1 <0>         0.0877
     18 C15        -1.6065    2.8213   10.4943 C.3       1 <0>        -0.1328
     19 C16        -2.7249    3.7945   10.1162 C.3       1 <0>        -0.1187
     20 C17        -2.2156    1.5542   11.0981 C.3       1 <0>        -0.1192
     21 C18        -0.6953    3.4708   11.5037 C.2       1 <0>         0.5081
     22 O2          0.4863    3.6268   11.2467 O.co2     1 <0>        -0.6983
     23 O3         -1.1396    3.8403   12.5772 O.co2     1 <0>        -0.6806
     24 N1          0.3208   -2.1973    1.0834 N.pl3     1 <0>        -0.4775
     25 C19         1.3094   -3.1435    1.1168 C.2       1 <0>        -0.0569
     26 C20         0.7148   -4.3354    0.9183 C.2       1 <0>        -0.0115
     27 N2         -0.6010   -4.1227    0.7679 N.2       1 <0>        -0.4710
     28 C21        -0.8449   -2.8449    0.8706 C.2       1 <0>         0.1682
     29 N3          0.3492   -0.5109   -1.1795 N.4       1 <0>        -0.3834
     30 C22         1.7788   -0.1853   -1.2692 C.3       1 <0>        -0.0634
     31 C23        -0.3689    0.1268   -2.2911 C.3       1 <0>         0.0217
     32 C24         0.1942   -0.3807   -3.6201 C.3       1 <0>        -0.1397
     33 C25        -0.5537    0.2836   -4.7778 C.3       1 <0>        -0.1159
     34 C26        -2.0415   -0.0622   -4.6890 C.3       1 <0>        -0.1314
     35 C27        -2.6046    0.4453   -3.3600 C.3       1 <0>        -0.1153
     36 C28        -1.8567   -0.2189   -2.2023 C.3       1 <0>        -0.1436
     37 H3          1.1580    1.6636    0.1796 H         1 <0>         0.0873
     38 H4         -0.4012    2.0069   -0.6074 H         1 <0>         0.0893
     39 H5         -0.3137    1.8494    1.1634 H         1 <0>         0.1157
     40 H6         -2.0800   -1.0088    2.0037 H         1 <0>         0.1135
     41 H7         -3.1342   -0.3316    4.0924 H         1 <0>         0.1333
     42 H8         -2.9398    0.6975    6.3391 H         1 <0>         0.1383
     43 H9          0.8501    2.1381    7.6591 H         1 <0>         0.1447
     44 H10         1.8979    1.4614    5.5685 H         1 <0>         0.1338
     45 H11         1.7028    0.4224    3.3273 H         1 <0>         0.1272
     46 H12        -0.0076    1.7623    9.5132 H         1 <0>         0.0658
     47 H13        -0.3704    3.3583    8.8137 H         1 <0>         0.0658
     48 H14        -3.3840    3.3248    9.3862 H         1 <0>         0.0465
     49 H15        -3.2964    4.0550   11.0071 H         1 <0>         0.0605
     50 H16        -2.2910    4.6972    9.6861 H         1 <0>         0.0436
     51 H17        -1.4189    0.8608   11.3674 H         1 <0>         0.0439
     52 H18        -2.7871    1.8147   11.9889 H         1 <0>         0.0606
     53 H19        -2.8747    1.0844   10.3680 H         1 <0>         0.0466
     54 H20         2.3636   -2.9679    1.2721 H         1 <0>         0.1815
     55 H21         1.2105   -5.2943    0.8860 H         1 <0>         0.1773
     56 H22        -1.8177   -2.3817    0.7952 H         1 <0>         0.2032
     57 H23         2.3117   -0.6585   -0.4444 H         1 <0>         0.1201
     58 H24         2.1761   -0.5512   -2.2159 H         1 <0>         0.1296
     59 H25         1.9095    0.8955   -1.2137 H         1 <0>         0.1308
     60 H26        -0.2430    1.2080   -2.2323 H         1 <0>         0.1410
     61 H27         1.2541   -0.1343   -3.6833 H         1 <0>         0.0878
     62 H28         0.0684   -1.4618   -3.6788 H         1 <0>         0.0853
     63 H29        -0.4278    1.3647   -4.7190 H         1 <0>         0.0743
     64 H30        -0.1525   -0.0780   -5.7246 H         1 <0>         0.0841
     65 H31        -2.5743    0.4110   -5.5138 H         1 <0>         0.0790
     66 H32        -2.1673   -1.1434   -4.7478 H         1 <0>         0.0704
     67 H33        -2.4787    1.5264   -3.3013 H         1 <0>         0.0745
     68 H34        -3.6645    0.1989   -3.2968 H         1 <0>         0.0855
     69 H35        -1.9826   -1.3001   -2.2611 H         1 <0>         0.0876
     70 H36        -2.2579    0.1426   -1.2555 H         1 <0>         0.0867
     71 H37         0.2282   -1.5113   -1.2309 H         1 <0>         0.4213
@<TRIPOS>BOND
     1    1    2 1
     2    1   37 1
     3    1   38 1
     4    1   39 1
     5    2    3 1
     6    2    4 1
     7    2   29 1
     8    4    5 1
     9    4    6 1
    10    4   24 1
    11    6   15 ar
    12    6    7 ar
    13    7    8 ar
    14    7   40 1
    15    8    9 ar
    16    8   41 1
    17    9   14 ar
    18    9   10 ar
    19   10   11 ar
    20   10   42 1
    21   11   12 ar
    22   11   16 1
    23   12   13 ar
    24   12   43 1
    25   13   14 ar
    26   13   44 1
    27   14   15 ar
    28   15   45 1
    29   16   17 1
    30   17   18 1
    31   17   46 1
    32   17   47 1
    33   18   19 1
    34   18   20 1
    35   18   21 1
    36   19   48 1
    37   19   49 1
    38   19   50 1
    39   20   51 1
    40   20   52 1
    41   20   53 1
    42   21   22 2
    43   21   23 1
    44   24   28 1
    45   24   25 1
    46   25   26 2
    47   25   54 1
    48   26   27 1
    49   26   55 1
    50   27   28 2
    51   28   56 1
    52   29   30 1
    53   29   31 1
    54   29   71 1
    55   30   57 1
    56   30   58 1
    57   30   59 1
    58   31   36 1
    59   31   32 1
    60   31   60 1
    61   32   33 1
    62   32   61 1
    63   32   62 1
    64   33   34 1
    65   33   63 1
    66   33   64 1
    67   34   35 1
    68   34   65 1
    69   34   66 1
    70   35   36 1
    71   35   67 1
    72   35   68 1
    73   36   69 1
    74   36   70 1
@<TRIPOS>MOLECULE
CHEMBL456379
   30    32     0     0     0
SMALL
USER_CHARGES

@<TRIPOS>ATOM
      1 C1         -0.0167    1.3783    0.0096 C.ar      1 <0>        -0.0952
      2 C2          1.1664    2.0887    0.0021 C.ar      1 <0>        -0.1054
      3 C3          2.3866    1.4109   -0.0131 C.ar      1 <0>         0.0134
      4 C4          2.4039    0.0157   -0.0207 C.ar      1 <0>        -0.1329
      5 C5          1.2111   -0.6870   -0.0131 C.ar      1 <0>         0.1135
      6 C6          0.0021   -0.0041    0.0020 C.ar      1 <0>        -0.1367
      7 O1          1.2235   -2.0460   -0.0205 O.3       1 <0>        -0.4966
      8 C7          3.6558    2.1683   -0.0216 C.2       1 <0>        -0.1360
      9 C8          3.8679    3.5253   -0.0113 C.2       1 <0>         0.0461
     10 N1          5.0921    3.9872   -0.0216 N.2       1 <0>        -0.4904
     11 C9          6.1394    3.1728   -0.0421 C.2       1 <0>         0.1451
     12 S1          5.3421    1.5725   -0.0404 S.3       1 <0>         0.0434
     13 C10         7.5804    3.5009   -0.0564 C.ar      1 <0>        -0.0010
     14 C11         8.5314    2.4789   -0.0840 C.ar      1 <0>        -0.1015
     15 C12         9.8757    2.7888   -0.0978 C.ar      1 <0>        -0.0991
     16 C13        10.2854    4.1096   -0.0843 C.ar      1 <0>        -0.1249
     17 C14         9.3471    5.1324   -0.0564 C.ar      1 <0>         0.1073
     18 C15         7.9951    4.8327   -0.0482 C.ar      1 <0>        -0.0972
     19 O2          9.7556    6.4286   -0.0429 O.3       1 <0>        -0.4948
     20 H1         -0.9601    1.9037    0.0260 H         1 <0>         0.1362
     21 H2          1.1482    3.1686    0.0077 H         1 <0>         0.1323
     22 H3          3.3448   -0.5143   -0.0329 H         1 <0>         0.1303
     23 H4         -0.9269   -0.5548    0.0083 H         1 <0>         0.1343
     24 H5          1.2355   -2.4440    0.8607 H         1 <0>         0.3942
     25 H6          3.0300    4.2064    0.0050 H         1 <0>         0.1730
     26 H7          8.2149    1.4464   -0.0942 H         1 <0>         0.1303
     27 H8         10.6104    1.9975   -0.1188 H         1 <0>         0.1383
     28 H9         11.3391    4.3462   -0.0952 H         1 <0>         0.1364
     29 H10         7.2642    5.6276   -0.0310 H         1 <0>         0.1430
     30 H11         9.8618    6.8167   -0.9222 H         1 <0>         0.3946
@<TRIPOS>BOND
     1    1    6 ar
     2    1    2 ar
     3    1   20 1
     4    2    3 ar
     5    2   21 1
     6    3    4 ar
     7    3    8 1
     8    4    5 ar
     9    4   22 1
    10    5    6 ar
    11    5    7 1
    12    6   23 1
    13    7   24 1
    14    8   12 1
    15    8    9 2
    16    9   10 1
    17    9   25 1
    18   10   11 2
    19   11   12 1
    20   11   13 1
    21   13   18 ar
    22   13   14 ar
    23   14   15 ar
    24   14   26 1
    25   15   16 ar
    26   15   27 1
    27   16   17 ar
    28   16   28 1
    29   17   18 ar
    30   17   19 1
    31   18   29 1
    32   19   30 1
@<TRIPOS>MOLECULE
CHEMBL253883
   70    73     0     0     0
SMALL
USER_CHARGES

@<TRIPOS>ATOM
      1 C1         -0.0187    1.5258    0.0104 C.3       1 <0>        -0.1619
      2 C2          0.0021   -0.0041    0.0020 C.3       1 <0>         0.1704
      3 C3          0.7421   -0.5109    1.2415 C.3       1 <0>        -0.1696
      4 C4          0.0380   -1.5594    2.1051 C.3       1 <0>        -0.1771
      5 C5          0.1779   -0.1218    2.6095 C.3       1 <0>        -0.1617
      6 N1          0.6878   -0.4765   -1.2033 N.pl3     1 <0>        -0.4617
      7 C6          0.1527   -1.2598   -2.1796 C.2       1 <0>         0.2706
      8 N2          1.0389   -1.4898   -3.1039 N.2       1 <0>        -0.4599
      9 C7          2.2013   -0.8689   -2.7814 C.ar      1 <0>        -0.0039
     10 C8          1.9911   -0.2045   -1.5596 C.ar      1 <0>         0.2520
     11 N3          2.9658    0.4961   -1.0028 N.ar      1 <0>        -0.4791
     12 C9          4.1516    0.5975   -1.5671 C.ar      1 <0>         0.1416
     13 C10         4.4325   -0.0263   -2.7722 C.ar      1 <0>        -0.1846
     14 C11         3.4541   -0.7780   -3.3951 C.ar      1 <0>        -0.0143
     15 C12        -1.2599   -1.7847   -2.1880 C.3       1 <0>         0.2046
     16 N4         -2.1332   -0.8257   -2.8689 N.am      1 <0>        -0.7281
     17 C13        -3.4494   -1.0859   -2.9972 C.2       1 <0>         0.5069
     18 O1         -3.9107   -2.1140   -2.5490 O.2       1 <0>        -0.4920
     19 C14        -4.3477   -0.0993   -3.6977 C.3       1 <0>         0.1515
     20 H1         -4.0636    0.9146   -3.4159 H         1 <0>         0.1306
     21 C15        -4.2060   -0.2664   -5.2119 C.3       1 <0>        -0.1198
     22 C16        -5.0090    0.7994   -5.9122 C.ar      1 <0>        -0.0269
     23 C17        -6.2992    0.5303   -6.3301 C.ar      1 <0>        -0.1066
     24 C18        -7.0356    1.5077   -6.9723 C.ar      1 <0>        -0.0808
     25 C19        -6.4823    2.7548   -7.1965 C.ar      1 <0>        -0.1203
     26 C20        -5.1929    3.0241   -6.7780 C.ar      1 <0>        -0.0686
     27 C21        -4.4578    2.0477   -6.1317 C.ar      1 <0>        -0.1854
     28 C22        -3.0537    2.3430   -5.6707 C.3       1 <0>         0.5081
     29 F1         -2.7213    3.6607   -6.0029 F         1 <0>        -0.1723
     30 F2         -2.9738    2.1774   -4.2838 F         1 <0>        -0.1798
     31 F3         -2.1628    1.4652   -6.2974 F         1 <0>        -0.1702
     32 N5         -5.7386   -0.3429   -3.3076 N.am      1 <0>        -0.6997
     33 C23        -6.3094   -1.5379   -3.5581 C.2       1 <0>         0.6570
     34 O2         -5.6703   -2.4132   -4.1076 O.2       1 <0>        -0.5362
     35 O3         -7.5877   -1.7618   -3.1996 O.3       1 <0>        -0.3601
     36 C24        -8.1283   -3.0509   -3.4959 C.3       1 <0>         0.1374
     37 C25        -7.3065   -4.1253   -2.7807 C.3       1 <0>        -0.1850
     38 C26        -9.5803   -3.1172   -3.0181 C.3       1 <0>        -0.1408
     39 C27        -8.0769   -3.2907   -5.0061 C.3       1 <0>        -0.1857
     40 H2          1.0039    1.9031    0.0027 H         1 <0>         0.0788
     41 H3         -0.5459    1.8868   -0.8726 H         1 <0>         0.0599
     42 H4         -0.5289    1.8773    0.9072 H         1 <0>         0.0795
     43 H5         -1.0205   -0.3814    0.0098 H         1 <0>         0.1018
     44 H6          1.8255   -0.5824    1.1458 H         1 <0>         0.1168
     45 H7         -0.9524   -1.8882    1.7902 H         1 <0>         0.0965
     46 H8          0.6582   -2.3211    2.5776 H         1 <0>         0.0980
     47 H9          0.8902    0.0624    3.4137 H         1 <0>         0.1008
     48 H10        -0.7204    0.4953    2.6263 H         1 <0>         0.0983
     49 H11         4.9207    1.1792   -1.0808 H         1 <0>         0.1667
     50 H12         5.4113    0.0692   -3.2186 H         1 <0>         0.1456
     51 H13         3.6484   -1.2719   -4.3357 H         1 <0>         0.1426
     52 H14        -1.2896   -2.7395   -2.7130 H         1 <0>         0.1109
     53 H15        -1.6021   -1.9233   -1.1624 H         1 <0>         0.0912
     54 H16        -1.7642   -0.0033   -3.2274 H         1 <0>         0.4027
     55 H17        -3.1566   -0.1729   -5.4912 H         1 <0>         0.0970
     56 H18        -4.5738   -1.2497   -5.5050 H         1 <0>         0.1193
     57 H19        -6.7314   -0.4439   -6.1549 H         1 <0>         0.1304
     58 H20        -8.0432    1.2973   -7.2993 H         1 <0>         0.1339
     59 H21        -7.0576    3.5183   -7.6990 H         1 <0>         0.1365
     60 H22        -4.7606    3.9981   -6.9534 H         1 <0>         0.1398
     61 H23        -6.2488    0.3558   -2.8689 H         1 <0>         0.4114
     62 H24        -7.3431   -3.9545   -1.7048 H         1 <0>         0.0571
     63 H25        -7.7189   -5.1086   -3.0068 H         1 <0>         0.0663
     64 H26        -6.2721   -4.0781   -3.1211 H         1 <0>         0.0938
     65 H27       -10.1657   -2.3518   -3.5276 H         1 <0>         0.0653
     66 H28        -9.9926   -4.1005   -3.2441 H         1 <0>         0.0800
     67 H29        -9.6169   -2.9464   -1.9422 H         1 <0>         0.0659
     68 H30        -7.0425   -3.2435   -5.3465 H         1 <0>         0.0878
     69 H31        -8.4893   -4.2740   -5.2322 H         1 <0>         0.0696
     70 H32        -8.6624   -2.5253   -5.5156 H         1 <0>         0.0573
@<TRIPOS>BOND
     1    1    2 1
     2    1   40 1
     3    1   41 1
     4    1   42 1
     5    2    3 1
     6    2    6 1
     7    2   43 1
     8    3    5 1
     9    3    4 1
    10    3   44 1
    11    4    5 1
    12    4   45 1
    13    4   46 1
    14    5   47 1
    15    5   48 1
    16    6   10 1
    17    6    7 1
    18    7    8 2
    19    7   15 1
    20    8    9 1
    21    9   14 ar
    22    9   10 ar
    23   10   11 ar
    24   11   12 ar
    25   12   13 ar
    26   12   49 1
    27   13   14 ar
    28   13   50 1
    29   14   51 1
    30   15   16 1
    31   15   52 1
    32   15   53 1
    33   16   17 am
    34   16   54 1
    35   17   18 2
    36   17   19 1
    37   19   20 1
    38   19   21 1
    39   19   32 1
    40   21   22 1
    41   21   55 1
    42   21   56 1
    43   22   27 ar
    44   22   23 ar
    45   23   24 ar
    46   23   57 1
    47   24   25 ar
    48   24   58 1
    49   25   26 ar
    50   25   59 1
    51   26   27 ar
    52   26   60 1
    53   27   28 1
    54   28   29 1
    55   28   30 1
    56   28   31 1
    57   32   33 am
    58   32   61 1
    59   33   34 2
    60   33   35 1
    61   35   36 1
    62   36   37 1
    63   36   38 1
    64   36   39 1
    65   37   62 1
    66   37   63 1
    67   37   64 1
    68   38   65 1
    69   38   66 1
    70   38   67 1
    71   39   68 1
    72   39   69 1
    73   39   70 1
@<TRIPOS>MOLECULE
CHEMBL253883
   70    73     0     0     0
SMALL
USER_CHARGES

@<TRIPOS>ATOM
      1 C1         -0.0187    1.5258    0.0104 C.3       1 <0>        -0.1623
      2 C2          0.0021   -0.0041    0.0020 C.3       1 <0>         0.1680
      3 C3          0.7182   -0.4975   -1.2568 C.3       1 <0>        -0.1667
      4 C4         -0.1262   -1.2051   -2.3185 C.3       1 <0>        -0.1625
      5 C5          0.8438   -2.0099   -1.4512 C.3       1 <0>        -0.1688
      6 N1          0.7106   -0.4894    1.1889 N.pl3     1 <0>        -0.4610
      7 C6          0.1974   -1.2920    2.1612 C.2       1 <0>         0.2676
      8 N2          1.1000   -1.5289    3.0678 N.2       1 <0>        -0.4598
      9 C7          2.2522   -0.8935    2.7367 C.ar      1 <0>        -0.0052
     10 C8          2.0208   -0.2218    1.5226 C.ar      1 <0>         0.2566
     11 N3          2.9848    0.4849    0.9550 N.ar      1 <0>        -0.4779
     12 C9          4.1809    0.5808    1.4979 C.ar      1 <0>         0.1414
     13 C10         4.4846   -0.0555    2.6909 C.ar      1 <0>        -0.1852
     14 C11         3.5135   -0.8011    3.3323 C.ar      1 <0>        -0.0147
     15 C12        -1.2110   -1.8274    2.1845 C.3       1 <0>         0.2038
     16 N4         -1.2552   -3.1161    1.4891 N.am      1 <0>        -0.7280
     17 C13        -2.4201   -3.7857    1.3842 C.2       1 <0>         0.5068
     18 O1         -3.4319   -3.3214    1.8656 O.2       1 <0>        -0.4915
     19 C14        -2.4655   -5.1113    0.6689 C.3       1 <0>         0.1515
     20 H1         -1.8321   -5.0679   -0.2171 H         1 <0>         0.1305
     21 C15        -1.9606   -6.2126    1.6033 C.3       1 <0>        -0.1199
     22 C16        -1.8897   -7.5164    0.8509 C.ar      1 <0>        -0.0269
     23 C17        -2.9479   -8.4045    0.9056 C.ar      1 <0>        -0.1066
     24 C18        -2.8830   -9.6003    0.2155 C.ar      1 <0>        -0.0807
     25 C19        -1.7599   -9.9081   -0.5299 C.ar      1 <0>        -0.1202
     26 C20        -0.7025   -9.0199   -0.5853 C.ar      1 <0>        -0.0686
     27 C21        -0.7692   -7.8219    0.1015 C.ar      1 <0>        -0.1852
     28 C22         0.3816   -6.8511    0.0369 C.3       1 <0>         0.5080
     29 F1          1.3909   -7.3778   -0.7762 F         1 <0>        -0.1723
     30 F2         -0.0620   -5.6369   -0.4981 F         1 <0>        -0.1793
     31 F3          0.8843   -6.6373    1.3248 F         1 <0>        -0.1705
     32 N5         -3.8444   -5.4038    0.2696 N.am      1 <0>        -0.6995
     33 C23        -4.8096   -5.5052    1.2048 C.2       1 <0>         0.6571
     34 O2         -4.5362   -5.3541    2.3790 O.2       1 <0>        -0.5363
     35 O3         -6.0768   -5.7740    0.8379 O.3       1 <0>        -0.3601
     36 C24        -7.0485   -5.8675    1.8815 C.3       1 <0>         0.1375
     37 C25        -7.1126   -4.5396    2.6389 C.3       1 <0>        -0.1850
     38 C26        -8.4193   -6.1760    1.2760 C.3       1 <0>        -0.1408
     39 C27        -6.6538   -6.9868    2.8470 C.3       1 <0>        -0.1857
     40 H2          1.0039    1.9031    0.0027 H         1 <0>         0.0778
     41 H3         -0.5459    1.8868   -0.8726 H         1 <0>         0.0807
     42 H4         -0.5289    1.8773    0.9072 H         1 <0>         0.0618
     43 H5         -1.0205   -0.3814    0.0098 H         1 <0>         0.1018
     44 H6          1.5438    0.1246   -1.6023 H         1 <0>         0.1196
     45 H7         -1.1919   -1.3191   -2.1201 H         1 <0>         0.0966
     46 H8          0.1437   -1.0484   -3.3628 H         1 <0>         0.1023
     47 H9          1.7519   -2.3827   -1.9249 H         1 <0>         0.0981
     48 H10         0.4162   -2.6534   -0.6822 H         1 <0>         0.0865
     49 H11         4.9409    1.1672    1.0029 H         1 <0>         0.1660
     50 H12         5.4716    0.0357    3.1197 H         1 <0>         0.1450
     51 H13         3.7267   -1.3078    4.2619 H         1 <0>         0.1419
     52 H14        -1.5320   -1.9609    3.2176 H         1 <0>         0.1111
     53 H15        -1.8761   -1.1224    1.6856 H         1 <0>         0.0913
     54 H16        -0.4460   -3.4874    1.1041 H         1 <0>         0.4013
     55 H17        -0.9683   -5.9508    1.9707 H         1 <0>         0.0967
     56 H18        -2.6444   -6.3160    2.4458 H         1 <0>         0.1194
     57 H19        -3.8252   -8.1640    1.4878 H         1 <0>         0.1303
     58 H20        -3.7093  -10.2943    0.2588 H         1 <0>         0.1339
     59 H21        -1.7089  -10.8428   -1.0686 H         1 <0>         0.1365
     60 H22         0.1749   -9.2605   -1.1673 H         1 <0>         0.1398
     61 H23        -4.0626   -5.5245   -0.6678 H         1 <0>         0.4114
     62 H24        -7.3938   -3.7422    1.9510 H         1 <0>         0.0571
     63 H25        -7.8538   -4.6109    3.4350 H         1 <0>         0.0663
     64 H26        -6.1361   -4.3198    3.0703 H         1 <0>         0.0937
     65 H27        -8.3735   -7.1219    0.7364 H         1 <0>         0.0653
     66 H28        -9.1604   -6.2472    2.0720 H         1 <0>         0.0800
     67 H29        -8.7004   -5.3785    0.5881 H         1 <0>         0.0659
     68 H30        -5.6773   -6.7670    3.2784 H         1 <0>         0.0877
     69 H31        -7.3950   -7.0580    3.6431 H         1 <0>         0.0696
     70 H32        -6.6081   -7.9328    2.3075 H         1 <0>         0.0573
@<TRIPOS>BOND
     1    1    2 1
     2    1   40 1
     3    1   41 1
     4    1   42 1
     5    2    3 1
     6    2    6 1
     7    2   43 1
     8    3    5 1
     9    3    4 1
    10    3   44 1
    11    4    5 1
    12    4   45 1
    13    4   46 1
    14    5   47 1
    15    5   48 1
    16    6   10 1
    17    6    7 1
    18    7    8 2
    19    7   15 1
    20    8    9 1
    21    9   14 ar
    22    9   10 ar
    23   10   11 ar
    24   11   12 ar
    25   12   13 ar
    26   12   49 1
    27   13   14 ar
    28   13   50 1
    29   14   51 1
    30   15   16 1
    31   15   52 1
    32   15   53 1
    33   16   17 am
    34   16   54 1
    35   17   18 2
    36   17   19 1
    37   19   20 1
    38   19   21 1
    39   19   32 1
    40   21   22 1
    41   21   55 1
    42   21   56 1
    43   22   27 ar
    44   22   23 ar
    45   23   24 ar
    46   23   57 1
    47   24   25 ar
    48   24   58 1
    49   25   26 ar
    50   25   59 1
    51   26   27 ar
    52   26   60 1
    53   27   28 1
    54   28   29 1
    55   28   30 1
    56   28   31 1
    57   32   33 am
    58   32   61 1
    59   33   34 2
    60   33   35 1
    61   35   36 1
    62   36   37 1
    63   36   38 1
    64   36   39 1
    65   37   62 1
    66   37   63 1
    67   37   64 1
    68   38   65 1
    69   38   66 1
    70   38   67 1
    71   39   68 1
    72   39   69 1
    73   39   70 1
@<TRIPOS>MOLECULE
CHEMBL80702
   58    63     0     0     0
SMALL
USER_CHARGES

@<TRIPOS>ATOM
      1 C1         -0.0167    1.3810    0.0096 C.ar      1 <0>        -0.1072
      2 C2          1.1471    2.0805    0.0023 C.ar      1 <0>        -0.0851
      3 C3          2.3713    1.3906   -0.0148 C.ar      1 <0>        -0.0567
      4 C4          3.5678    2.1273    0.0070 C.ar      1 <0>        -0.0659
      5 C5          4.7493    1.4711   -0.0082 C.ar      1 <0>        -0.1279
      6 C6          4.8072    0.0634   -0.0636 C.ar      1 <0>         0.1753
      7 C7          3.6601   -0.6704   -0.1081 C.ar      1 <0>        -0.1726
      8 C8          2.4072   -0.0315   -0.0493 C.ar      1 <0>        -0.0094
      9 C9          1.1922   -0.7264   -0.0231 C.ar      1 <0>         0.1359
     10 C10         0.0021   -0.0041    0.0020 C.ar      1 <0>        -0.1237
     11 N1          1.0078   -2.1052    0.0106 N.am      1 <0>        -0.5357
     12 C11        -0.1618   -2.7200   -0.6688 C.3       1 <0>         0.0706
     13 C12        -0.1933   -4.1892   -0.2392 C.3       1 <0>        -0.1462
     14 C13         1.2203   -4.4227    0.2951 C.3       1 <0>        -0.0065
     15 C14         1.7674   -3.0454    0.5893 C.2       1 <0>         0.4909
     16 O1          2.7465   -2.8348    1.2735 O.2       1 <0>        -0.4603
     17 N2          2.0604   -5.0812   -0.7136 N.4       1 <0>        -0.4992
     18 C15         3.1454   -5.7999   -0.0247 C.3       1 <0>        -0.0051
     19 C16         4.4755   -5.1283   -0.3652 C.3       1 <0>        -0.0641
     20 C17         5.4590   -6.1348   -0.8874 C.2       1 <0>        -0.0488
     21 C18         5.2087   -7.2320   -1.6180 C.2       1 <0>        -0.0097
     22 N3          6.3686   -7.8527   -1.8668 N.2       1 <0>        -0.4815
     23 C19         7.3431   -7.1729   -1.3182 C.2       1 <0>         0.2121
     24 N4          6.8182   -6.0903   -0.7038 N.pl3     1 <0>        -0.4470
     25 C20         7.5465   -5.0464    0.0232 C.3       1 <0>         0.1357
     26 C21         7.4291   -3.7164   -0.6823 C.ar      1 <0>        -0.0738
     27 C22         7.9884   -3.5494   -1.9321 C.ar      1 <0>        -0.0992
     28 C23         7.8756   -2.3322   -2.5723 C.ar      1 <0>        -0.0481
     29 C24         7.2045   -1.2686   -1.9614 C.ar      1 <0>        -0.0353
     30 C25         6.6451   -1.4459   -0.6866 C.ar      1 <0>         0.1876
     31 C26         6.7601   -2.6816   -0.0651 C.ar      1 <0>        -0.1300
     32 O2          6.0369   -0.4493   -0.0493 O.3       1 <0>        -0.3084
     33 C27         7.0944   -0.0098   -2.6353 C.1       1 <0>         0.2353
     34 N5          7.0071    0.9887   -3.1699 N.1       1 <0>        -0.3779
     35 H1         -0.9604    1.9058    0.0260 H         1 <0>         0.1385
     36 H2          1.1335    3.1597    0.0107 H         1 <0>         0.1403
     37 H3          3.5411    3.2074    0.0338 H         1 <0>         0.1490
     38 H4          5.6704    2.0336    0.0217 H         1 <0>         0.1390
     39 H5          3.7180   -1.7436   -0.2087 H         1 <0>         0.1242
     40 H6         -0.9382   -0.5332    0.0262 H         1 <0>         0.1316
     41 H7         -1.0826   -2.2295   -0.3588 H         1 <0>         0.1147
     42 H8         -0.0412   -2.6476   -1.7493 H         1 <0>         0.1013
     43 H9         -0.9308   -4.3453    0.5471 H         1 <0>         0.1348
     44 H10        -0.3936   -4.8350   -1.0921 H         1 <0>         0.1224
     45 H11         1.1961   -5.0191    1.2045 H         1 <0>         0.1795
     46 H12         1.5037   -5.7395   -1.2419 H         1 <0>         0.4391
     47 H13         2.9843   -5.7622    1.0532 H         1 <0>         0.1467
     48 H14         3.1609   -6.8393   -0.3504 H         1 <0>         0.1497
     49 H15         4.3140   -4.3584   -1.1198 H         1 <0>         0.0900
     50 H16         4.8825   -4.6637    0.5356 H         1 <0>         0.1095
     51 H17         4.2363   -7.5613   -1.9544 H         1 <0>         0.1648
     52 H18         8.3906   -7.4346   -1.3518 H         1 <0>         0.2151
     53 H19         7.1339   -4.9564    1.0280 H         1 <0>         0.1043
     54 H20         8.5981   -5.3242    0.0911 H         1 <0>         0.1231
     55 H21         8.5131   -4.3667   -2.4047 H         1 <0>         0.1439
     56 H22         8.3111   -2.1996   -3.5523 H         1 <0>         0.1477
     57 H23         6.3195   -2.8306    0.9100 H         1 <0>         0.1453
     58 H24         2.4457   -4.3919   -1.3411 H         1 <0>         0.4274
@<TRIPOS>BOND
     1    1   10 ar
     2    1    2 ar
     3    1   35 1
     4    2    3 ar
     5    2   36 1
     6    3    8 ar
     7    3    4 ar
     8    4    5 ar
     9    4   37 1
    10    5    6 ar
    11    5   38 1
    12    6   32 1
    13    6    7 ar
    14    7    8 ar
    15    7   39 1
    16    8    9 ar
    17    9   10 ar
    18    9   11 1
    19   10   40 1
    20   11   15 am
    21   11   12 1
    22   12   13 1
    23   12   41 1
    24   12   42 1
    25   13   14 1
    26   13   43 1
    27   13   44 1
    28   14   15 1
    29   14   17 1
    30   14   45 1
    31   15   16 2
    32   17   18 1
    33   17   46 1
    34   17   58 1
    35   18   19 1
    36   18   47 1
    37   18   48 1
    38   19   20 1
    39   19   49 1
    40   19   50 1
    41   20   24 1
    42   20   21 2
    43   21   22 1
    44   21   51 1
    45   22   23 2
    46   23   24 1
    47   23   52 1
    48   24   25 1
    49   25   26 1
    50   25   53 1
    51   25   54 1
    52   26   31 ar
    53   26   27 ar
    54   27   28 ar
    55   27   55 1
    56   28   29 ar
    57   28   56 1
    58   29   30 ar
    59   29   33 1
    60   30   31 ar
    61   30   32 1
    62   31   57 1
    63   33   34 3
@<TRIPOS>MOLECULE
CHEMBL80702
   58    63     0     0     0
SMALL
USER_CHARGES

@<TRIPOS>ATOM
      1 C1         -0.0167    1.3805    0.0096 C.ar      1 <0>        -0.0933
      2 C2          1.1493    2.0770    0.0022 C.ar      1 <0>        -0.1095
      3 C3          2.3694    1.3834   -0.0194 C.ar      1 <0>        -0.0467
      4 C4          3.5684    2.1200    0.0023 C.ar      1 <0>        -0.0766
      5 C5          4.7479    1.4636   -0.0204 C.ar      1 <0>        -0.1234
      6 C6          4.8082    0.0574   -0.0861 C.ar      1 <0>         0.1362
      7 C7          3.6588   -0.6772   -0.1300 C.ar      1 <0>        -0.1393
      8 C8          2.4074   -0.0376   -0.0578 C.ar      1 <0>        -0.0259
      9 C9          1.1934   -0.7301   -0.0224 C.ar      1 <0>         0.1687
     10 C10         0.0021   -0.0041    0.0020 C.ar      1 <0>        -0.1484
     11 N1          1.0101   -2.1152    0.0203 N.am      1 <0>        -0.5494
     12 C11        -0.2125   -2.7118   -0.5627 C.3       1 <0>         0.0911
     13 C12        -0.1459   -4.2198   -0.3218 C.3       1 <0>        -0.1353
     14 C13         1.2742   -4.4371    0.1937 C.3       1 <0>         0.0100
     15 C14         1.8020   -3.0613    0.5367 C.2       1 <0>         0.5340
     16 O1          2.7922   -2.8605    1.2104 O.2       1 <0>        -0.5065
     17 N2          2.1078   -5.0238   -0.8931 N.3       1 <0>        -0.5900
     18 C15         3.1637   -5.8335   -0.2086 C.3       1 <0>         0.0086
     19 C16         4.5103   -5.1588   -0.4485 C.3       1 <0>        -0.0558
     20 C17         5.4770   -6.1307   -1.0747 C.2       1 <0>         0.0710
     21 C18         5.2044   -7.1917   -1.8481 C.2       1 <0>        -0.0032
     22 N3          6.3646   -7.7803   -2.1811 N.pl3     1 <0>        -0.4750
     23 C19         7.3498   -7.1123   -1.6426 C.cat     1 <0>         0.2943
     24 N4          6.8472   -6.0736   -0.9540 N.pl3     1 <0>        -0.4091
     25 C20         7.5867   -5.0508   -0.2140 C.3       1 <0>         0.1382
     26 C21         7.3879   -3.7161   -0.8840 C.ar      1 <0>        -0.0993
     27 C22         7.8171   -3.5239   -2.1856 C.ar      1 <0>        -0.1093
     28 C23         7.6409   -2.3081   -2.8119 C.ar      1 <0>        -0.0471
     29 C24         7.0271   -1.2665   -2.1154 C.ar      1 <0>        -0.0252
     30 C25         6.5925   -1.4519   -0.7962 C.ar      1 <0>         0.1888
     31 C26         6.7727   -2.6946   -0.1904 C.ar      1 <0>        -0.1083
     32 O2          6.0375   -0.4715   -0.0825 O.3       1 <0>        -0.2981
     33 C27         6.8479    0.0004   -2.7591 C.1       1 <0>         0.2285
     34 N5          6.7058    1.0053   -3.2696 N.1       1 <0>        -0.3701
     35 H1         -0.9595    1.9072    0.0260 H         1 <0>         0.1350
     36 H2          1.1399    3.1569    0.0142 H         1 <0>         0.1363
     37 H3          3.5427    3.2004    0.0349 H         1 <0>         0.1455
     38 H4          5.6698    2.0256    0.0113 H         1 <0>         0.1339
     39 H5          3.7167   -1.7499   -0.2440 H         1 <0>         0.1354
     40 H6         -0.9386   -0.5337    0.0218 H         1 <0>         0.1306
     41 H7         -1.0958   -2.3044   -0.0707 H         1 <0>         0.0897
     42 H8         -0.2495   -2.5043   -1.6314 H         1 <0>         0.0892
     43 H9         -0.8776   -4.5204    0.4289 H         1 <0>         0.0978
     44 H10        -0.3084   -4.7645   -1.2515 H         1 <0>         0.1044
     45 H11         1.2842   -5.0875    1.0578 H         1 <0>         0.1033
     46 H12         1.4651   -5.7874   -1.2721 H         1 <0>         0.3368
     47 H13         2.9437   -5.8629    0.8535 H         1 <0>         0.0827
     48 H14         3.1554   -6.8324   -0.6300 H         1 <0>         0.0802
     49 H15         4.3756   -4.3037   -1.1130 H         1 <0>         0.1167
     50 H16         4.9146   -4.8094    0.5035 H         1 <0>         0.0985
     51 H17         4.2224   -7.5193   -2.1566 H         1 <0>         0.2197
     52 H18         8.3980   -7.3556   -1.7365 H         1 <0>         0.2613
     53 H19         7.2137   -5.0018    0.8090 H         1 <0>         0.1321
     54 H20         8.6466   -5.3003   -0.2050 H         1 <0>         0.1412
     55 H21         8.2957   -4.3342   -2.7154 H         1 <0>         0.1354
     56 H22         7.9748   -2.1629   -3.8289 H         1 <0>         0.1514
     57 H23         6.4282   -2.8548    0.8209 H         1 <0>         0.1524
     58 H24         6.4563   -8.5721   -2.7334 H         1 <0>         0.4658
@<TRIPOS>BOND
     1    1   10 ar
     2    1    2 ar
     3    1   35 1
     4    2    3 ar
     5    2   36 1
     6    3    8 ar
     7    3    4 ar
     8    4    5 ar
     9    4   37 1
    10    5    6 ar
    11    5   38 1
    12    6   32 1
    13    6    7 ar
    14    7    8 ar
    15    7   39 1
    16    8    9 ar
    17    9   10 ar
    18    9   11 1
    19   10   40 1
    20   11   15 am
    21   11   12 1
    22   12   13 1
    23   12   41 1
    24   12   42 1
    25   13   14 1
    26   13   43 1
    27   13   44 1
    28   14   15 1
    29   14   17 1
    30   14   45 1
    31   15   16 2
    32   17   18 1
    33   17   46 1
    34   18   19 1
    35   18   47 1
    36   18   48 1
    37   19   20 1
    38   19   49 1
    39   19   50 1
    40   20   24 1
    41   20   21 2
    42   21   22 1
    43   21   51 1
    44   22   23 2
    45   22   58 1
    46   23   24 1
    47   23   52 1
    48   24   25 1
    49   25   26 1
    50   25   53 1
    51   25   54 1
    52   26   31 ar
    53   26   27 ar
    54   27   28 ar
    55   27   55 1
    56   28   29 ar
    57   28   56 1
    58   29   30 ar
    59   29   33 1
    60   30   31 ar
    61   30   32 1
    62   31   57 1
    63   33   34 3
@<TRIPOS>MOLECULE
CHEMBL80702
   59    64     0     0     0
SMALL
USER_CHARGES

@<TRIPOS>ATOM
      1 C1         -0.0167    1.3811    0.0096 C.ar      1 <0>        -0.1055
      2 C2          1.1471    2.0807    0.0023 C.ar      1 <0>        -0.0792
      3 C3          2.3710    1.3907   -0.0155 C.ar      1 <0>        -0.0563
      4 C4          3.5674    2.1272    0.0074 C.ar      1 <0>        -0.0587
      5 C5          4.7488    1.4714   -0.0067 C.ar      1 <0>        -0.1314
      6 C6          4.8063    0.0637   -0.0634 C.ar      1 <0>         0.1729
      7 C7          3.6593   -0.6695   -0.1086 C.ar      1 <0>        -0.1711
      8 C8          2.4068   -0.0312   -0.0500 C.ar      1 <0>        -0.0087
      9 C9          1.1917   -0.7266   -0.0232 C.ar      1 <0>         0.1264
     10 C10         0.0021   -0.0041    0.0020 C.ar      1 <0>        -0.1158
     11 N1          1.0095   -2.1057    0.0114 N.am      1 <0>        -0.5287
     12 C11        -0.1605   -2.7239   -0.6628 C.3       1 <0>         0.0673
     13 C12        -0.1867   -4.1932   -0.2319 C.3       1 <0>        -0.1463
     14 C13         1.2298   -4.4224    0.2963 C.3       1 <0>        -0.0075
     15 C14         1.7732   -3.0434    0.5894 C.2       1 <0>         0.4871
     16 O1          2.7519   -2.8295    1.2743 O.2       1 <0>        -0.4659
     17 N2          2.0695   -5.0777   -0.7153 N.4       1 <0>        -0.5012
     18 C15         3.1579   -5.7927   -0.0278 C.3       1 <0>        -0.0064
     19 C16         4.4865   -5.1207   -0.3724 C.3       1 <0>        -0.0895
     20 C17         5.4692   -6.1250   -0.9007 C.2       1 <0>         0.0422
     21 C18         5.2163   -7.2217   -1.6321 C.2       1 <0>         0.0079
     22 N3          6.3763   -7.8398   -1.8876 N.pl3     1 <0>        -0.4712
     23 C19         7.3526   -7.1611   -1.3415 C.cat     1 <0>         0.3212
     24 N4          6.8292   -6.0806   -0.7221 N.pl3     1 <0>        -0.4022
     25 C20         7.5607   -5.0373    0.0026 C.3       1 <0>         0.1302
     26 C21         7.4354   -3.7067   -0.7010 C.ar      1 <0>        -0.1026
     27 C22         7.9822   -3.5380   -1.9556 C.ar      1 <0>        -0.1036
     28 C23         7.8628   -2.3200   -2.5930 C.ar      1 <0>        -0.0462
     29 C24         7.1964   -1.2580   -1.9739 C.ar      1 <0>        -0.0149
     30 C25         6.6465   -1.4385   -0.6957 C.ar      1 <0>         0.1967
     31 C26         6.7693   -2.6747   -0.0771 C.ar      1 <0>        -0.1249
     32 O2          6.0369   -0.4470   -0.0518 O.3       1 <0>        -0.3074
     33 C27         7.0822    0.0037   -2.6423 C.1       1 <0>         0.2199
     34 N5          6.9917    1.0043   -3.1724 N.1       1 <0>        -0.3543
     35 H1         -0.9603    1.9065    0.0260 H         1 <0>         0.1423
     36 H2          1.1337    3.1606    0.0104 H         1 <0>         0.1440
     37 H3          3.5409    3.2075    0.0340 H         1 <0>         0.1522
     38 H4          5.6706    2.0337    0.0267 H         1 <0>         0.1410
     39 H5          3.7175   -1.7435   -0.2106 H         1 <0>         0.1210
     40 H6         -0.9388   -0.5330    0.0274 H         1 <0>         0.1334
     41 H7         -1.0821   -2.2348   -0.3532 H         1 <0>         0.1184
     42 H8         -0.0421   -2.6538   -1.7442 H         1 <0>         0.1031
     43 H9         -0.9198   -4.3472    0.5586 H         1 <0>         0.1384
     44 H10        -0.3915   -4.8412   -1.0820 H         1 <0>         0.1240
     45 H11         1.2104   -5.0192    1.2053 H         1 <0>         0.1826
     46 H12         1.5129   -5.7371   -1.2420 H         1 <0>         0.4425
     47 H13         2.9990   -5.7551    1.0504 H         1 <0>         0.1600
     48 H14         3.1741   -6.8327   -0.3539 H         1 <0>         0.1474
     49 H15         4.3225   -4.3482   -1.1241 H         1 <0>         0.1191
     50 H16         4.8955   -4.6582    0.5276 H         1 <0>         0.1361
     51 H17         4.2425   -7.5515   -1.9632 H         1 <0>         0.2195
     52 H18         8.4004   -7.4210   -1.3800 H         1 <0>         0.2714
     53 H19         7.1521   -4.9483    1.0093 H         1 <0>         0.1348
     54 H20         8.6127   -5.3131    0.0650 H         1 <0>         0.1476
     55 H21         8.5017   -4.3536   -2.4363 H         1 <0>         0.1428
     56 H22         8.2882   -2.1844   -3.5769 H         1 <0>         0.1530
     57 H23         6.3371   -2.8273    0.9012 H         1 <0>         0.1512
     58 H24         6.4766   -8.6587   -2.3972 H         1 <0>         0.4730
     59 H25         2.4502   -4.3867   -1.3431 H         1 <0>         0.4290
@<TRIPOS>BOND
     1    1   10 ar
     2    1    2 ar
     3    1   35 1
     4    2    3 ar
     5    2   36 1
     6    3    8 ar
     7    3    4 ar
     8    4    5 ar
     9    4   37 1
    10    5    6 ar
    11    5   38 1
    12    6   32 1
    13    6    7 ar
    14    7    8 ar
    15    7   39 1
    16    8    9 ar
    17    9   10 ar
    18    9   11 1
    19   10   40 1
    20   11   15 am
    21   11   12 1
    22   12   13 1
    23   12   41 1
    24   12   42 1
    25   13   14 1
    26   13   43 1
    27   13   44 1
    28   14   15 1
    29   14   17 1
    30   14   45 1
    31   15   16 2
    32   17   18 1
    33   17   46 1
    34   17   59 1
    35   18   19 1
    36   18   47 1
    37   18   48 1
    38   19   20 1
    39   19   49 1
    40   19   50 1
    41   20   24 1
    42   20   21 2
    43   21   22 1
    44   21   51 1
    45   22   23 2
    46   22   58 1
    47   23   24 1
    48   23   52 1
    49   24   25 1
    50   25   26 1
    51   25   53 1
    52   25   54 1
    53   26   31 ar
    54   26   27 ar
    55   27   28 ar
    56   27   55 1
    57   28   29 ar
    58   28   56 1
    59   29   30 ar
    60   29   33 1
    61   30   31 ar
    62   30   32 1
    63   31   57 1
    64   33   34 3
@<TRIPOS>MOLECULE
CHEMBL80702
   58    63     0     0     0
SMALL
USER_CHARGES

@<TRIPOS>ATOM
      1 C1         -0.0167    1.3827    0.0096 C.ar      1 <0>        -0.1017
      2 C2          1.1462    2.0911    0.0023 C.ar      1 <0>        -0.0910
      3 C3          2.3767    1.4178    0.0114 C.ar      1 <0>        -0.0438
      4 C4          3.5796    2.1406   -0.0280 C.ar      1 <0>        -0.0792
      5 C5          4.7571    1.4851    0.1256 C.ar      1 <0>        -0.1166
      6 C6          4.7908    0.0894    0.2845 C.ar      1 <0>         0.1224
      7 C7          3.6508   -0.6488    0.1882 C.ar      1 <0>        -0.1457
      8 C8          2.4095   -0.0048    0.0533 C.ar      1 <0>        -0.0286
      9 C9          1.1965   -0.7087   -0.0147 C.ar      1 <0>         0.1392
     10 C10         0.0021   -0.0041    0.0020 C.ar      1 <0>        -0.1246
     11 N1          1.0879   -2.0861   -0.1741 N.am      1 <0>        -0.5288
     12 C11        -0.0540   -2.8470    0.3599 C.3       1 <0>         0.0803
     13 C12         0.0733   -4.2895   -0.1383 C.3       1 <0>        -0.1423
     14 C13         1.2973   -4.2422   -1.0629 C.3       1 <0>        -0.0125
     15 C14         1.9491   -2.9006   -0.8124 C.2       1 <0>         0.4987
     16 O1          3.0789   -2.6028   -1.1382 O.2       1 <0>        -0.4651
     17 N2          2.2126   -5.3388   -0.7579 N.4       1 <0>        -0.4867
     18 C15         3.5531   -4.8202   -0.4664 C.3       1 <0>        -0.0360
     19 C16         4.3332   -4.6195   -1.7689 C.3       1 <0>        -0.0427
     20 C17         5.3246   -5.7399   -1.9230 C.2       1 <0>        -0.0635
     21 C18         5.2979   -6.7027   -2.8637 C.2       1 <0>        -0.0026
     22 N3          6.3481   -7.5104   -2.6603 N.2       1 <0>        -0.4854
     23 C19         7.0285   -7.0848   -1.6303 C.2       1 <0>         0.2073
     24 N4          6.4172   -5.9893   -1.1360 N.pl3     1 <0>        -0.4519
     25 C20         6.8461   -5.2212    0.0383 C.3       1 <0>         0.1403
     26 C21         7.0744   -3.7864   -0.3599 C.ar      1 <0>        -0.0808
     27 C22         8.0088   -3.4887   -1.3387 C.ar      1 <0>        -0.0953
     28 C23         8.2333   -2.1776   -1.7035 C.ar      1 <0>        -0.0490
     29 C24         7.5229   -1.1486   -1.0816 C.ar      1 <0>        -0.0213
     30 C25         6.5758   -1.4575   -0.0898 C.ar      1 <0>         0.1605
     31 C26         6.3391   -2.7847    0.2363 C.ar      1 <0>        -0.1216
     32 O2          5.9752   -0.4711    0.5940 O.3       1 <0>        -0.2796
     33 C27         7.7582    0.2145   -1.4522 C.1       1 <0>         0.2378
     34 N5          7.9450    1.2958   -1.7462 N.1       1 <0>        -0.3797
     35 H1         -0.9618    1.9052    0.0260 H         1 <0>         0.1386
     36 H2          1.1211    3.1707   -0.0107 H         1 <0>         0.1392
     37 H3          3.5675    3.2098   -0.1797 H         1 <0>         0.1456
     38 H4          5.6815    2.0436    0.1254 H         1 <0>         0.1351
     39 H5          3.7007   -1.7273    0.2152 H         1 <0>         0.1505
     40 H6         -0.9320   -0.5461    0.0092 H         1 <0>         0.1323
     41 H7         -0.0330   -2.8291    1.4496 H         1 <0>         0.1053
     42 H8         -0.9874   -2.4131    0.0016 H         1 <0>         0.1093
     43 H9          0.2471   -4.9702    0.6951 H         1 <0>         0.1139
     44 H10        -0.8170   -4.5842   -0.6940 H         1 <0>         0.1332
     45 H11         0.9680   -4.2951   -2.1057 H         1 <0>         0.1832
     46 H12         1.8696   -5.8465    0.0437 H         1 <0>         0.4320
     47 H13         3.4665   -3.8663    0.0539 H         1 <0>         0.1472
     48 H14         4.0849   -5.5292    0.1681 H         1 <0>         0.1282
     49 H15         3.6426   -4.6250   -2.6123 H         1 <0>         0.1046
     50 H16         4.8617   -3.6669   -1.7345 H         1 <0>         0.1247
     51 H17         4.5597   -6.8061   -3.6452 H         1 <0>         0.1699
     52 H18         7.9292   -7.5349   -1.2398 H         1 <0>         0.2131
     53 H19         6.0729   -5.2671    0.8052 H         1 <0>         0.0953
     54 H20         7.7725   -5.6418    0.4296 H         1 <0>         0.1248
     55 H21         8.5616   -4.2839   -1.8166 H         1 <0>         0.1413
     56 H22         8.9587   -1.9467   -2.4696 H         1 <0>         0.1482
     57 H23         5.5766   -3.0338    0.9595 H         1 <0>         0.1351
     58 H24         2.2610   -5.9629   -1.5492 H         1 <0>         0.4389
@<TRIPOS>BOND
     1    1   10 ar
     2    1    2 ar
     3    1   35 1
     4    2    3 ar
     5    2   36 1
     6    3    8 ar
     7    3    4 ar
     8    4    5 ar
     9    4   37 1
    10    5    6 ar
    11    5   38 1
    12    6   32 1
    13    6    7 ar
    14    7    8 ar
    15    7   39 1
    16    8    9 ar
    17    9   10 ar
    18    9   11 1
    19   10   40 1
    20   11   15 am
    21   11   12 1
    22   12   13 1
    23   12   41 1
    24   12   42 1
    25   13   14 1
    26   13   43 1
    27   13   44 1
    28   14   15 1
    29   14   17 1
    30   14   45 1
    31   15   16 2
    32   17   18 1
    33   17   46 1
    34   17   58 1
    35   18   19 1
    36   18   47 1
    37   18   48 1
    38   19   20 1
    39   19   49 1
    40   19   50 1
    41   20   24 1
    42   20   21 2
    43   21   22 1
    44   21   51 1
    45   22   23 2
    46   23   24 1
    47   23   52 1
    48   24   25 1
    49   25   26 1
    50   25   53 1
    51   25   54 1
    52   26   31 ar
    53   26   27 ar
    54   27   28 ar
    55   27   55 1
    56   28   29 ar
    57   28   56 1
    58   29   30 ar
    59   29   33 1
    60   30   31 ar
    61   30   32 1
    62   31   57 1
    63   33   34 3
@<TRIPOS>MOLECULE
CHEMBL80702
   58    63     0     0     0
SMALL
USER_CHARGES

@<TRIPOS>ATOM
      1 C1         -0.0167    1.3837    0.0096 C.ar      1 <0>        -0.0928
      2 C2          1.1467    2.0893    0.0023 C.ar      1 <0>        -0.1088
      3 C3          2.3758    1.4117    0.0237 C.ar      1 <0>        -0.0401
      4 C4          3.5803    2.1361    0.0107 C.ar      1 <0>        -0.0839
      5 C5          4.7514    1.4811    0.1866 C.ar      1 <0>        -0.1177
      6 C6          4.7900    0.0832    0.3265 C.ar      1 <0>         0.1098
      7 C7          3.6476   -0.6545    0.2129 C.ar      1 <0>        -0.1351
      8 C8          2.4089   -0.0083    0.0638 C.ar      1 <0>        -0.0360
      9 C9          1.1983   -0.7129   -0.0050 C.ar      1 <0>         0.1613
     10 C10         0.0021   -0.0041    0.0020 C.ar      1 <0>        -0.1419
     11 N1          1.0826   -2.0932   -0.1320 N.am      1 <0>        -0.5536
     12 C11        -0.0505   -2.8306    0.4546 C.3       1 <0>         0.0876
     13 C12         0.0512   -4.2844   -0.0091 C.3       1 <0>        -0.1507
     14 C13         1.2304   -4.2654   -0.9917 C.3       1 <0>         0.0641
     15 C14         1.9200   -2.9339   -0.7655 C.2       1 <0>         0.5051
     16 O1          3.0537   -2.6676   -1.1044 O.2       1 <0>        -0.4955
     17 N2          2.1375   -5.3783   -0.7241 N.3       1 <0>        -0.6681
     18 C15         3.4709   -4.9161   -0.3280 C.3       1 <0>         0.0508
     19 C16         4.3244   -4.7017   -1.5760 C.3       1 <0>        -0.0460
     20 C17         5.3246   -5.8166   -1.7163 C.2       1 <0>         0.0713
     21 C18         5.3133   -6.7996   -2.6325 C.2       1 <0>         0.0014
     22 N3          6.3855   -7.5792   -2.4237 N.pl3     1 <0>        -0.4721
     23 C19         7.0591   -7.1148   -1.4076 C.cat     1 <0>         0.2834
     24 N4          6.4266   -6.0238   -0.9288 N.pl3     1 <0>        -0.4082
     25 C20         6.8316   -5.2188    0.2241 C.3       1 <0>         0.1374
     26 C21         7.1055   -3.7963   -0.1883 C.ar      1 <0>        -0.0970
     27 C22         8.1155   -3.5243   -1.0970 C.ar      1 <0>        -0.1035
     28 C23         8.3631   -2.2252   -1.4873 C.ar      1 <0>        -0.0508
     29 C24         7.6062   -1.1791   -0.9527 C.ar      1 <0>        -0.0106
     30 C25         6.6057   -1.4592   -0.0065 C.ar      1 <0>         0.1723
     31 C26         6.3450   -2.7762    0.3419 C.ar      1 <0>        -0.1075
     32 O2          5.9791   -0.4606    0.6317 O.3       1 <0>        -0.2836
     33 C27         7.8490    0.1702   -1.3663 C.1       1 <0>         0.2350
     34 N5          8.0416    1.2406   -1.6945 N.1       1 <0>        -0.3734
     35 H1         -0.9613    1.9072    0.0260 H         1 <0>         0.1352
     36 H2          1.1245    3.1688   -0.0202 H         1 <0>         0.1357
     37 H3          3.5712    3.2056   -0.1387 H         1 <0>         0.1431
     38 H4          5.6732    2.0428    0.2197 H         1 <0>         0.1315
     39 H5          3.6955   -1.7331    0.2379 H         1 <0>         0.1553
     40 H6         -0.9326   -0.5451    0.0014 H         1 <0>         0.1306
     41 H7          0.0021   -2.7849    1.5424 H         1 <0>         0.0874
     42 H8         -0.9904   -2.3980    0.1118 H         1 <0>         0.0933
     43 H9          0.2634   -4.9427    0.8333 H         1 <0>         0.0928
     44 H10        -0.8647   -4.5919   -0.5138 H         1 <0>         0.1064
     45 H11         0.8510   -4.3018   -2.0156 H         1 <0>         0.1288
     46 H12         1.7505   -6.0018   -0.0316 H         1 <0>         0.3585
     47 H13         3.3828   -3.9769    0.2180 H         1 <0>         0.0687
     48 H14         3.9408   -5.6650    0.3096 H         1 <0>         0.0646
     49 H15         3.6804   -4.6812   -2.4551 H         1 <0>         0.1162
     50 H16         4.8517   -3.7513   -1.4943 H         1 <0>         0.1096
     51 H17         4.5695   -6.9386   -3.4032 H         1 <0>         0.2210
     52 H18         7.9730   -7.5349   -1.0142 H         1 <0>         0.2598
     53 H19         6.0343   -5.2299    0.9673 H         1 <0>         0.1248
     54 H20         7.7343   -5.6460    0.6608 H         1 <0>         0.1388
     55 H21         8.7100   -4.3309   -1.4998 H         1 <0>         0.1383
     56 H22         9.1418   -2.0162   -2.2058 H         1 <0>         0.1499
     57 H23         5.5441   -3.0029    1.0299 H         1 <0>         0.1429
     58 H24         6.6215   -8.3627   -2.9445 H         1 <0>         0.4645
@<TRIPOS>BOND
     1    1   10 ar
     2    1    2 ar
     3    1   35 1
     4    2    3 ar
     5    2   36 1
     6    3    8 ar
     7    3    4 ar
     8    4    5 ar
     9    4   37 1
    10    5    6 ar
    11    5   38 1
    12    6   32 1
    13    6    7 ar
    14    7    8 ar
    15    7   39 1
    16    8    9 ar
    17    9   10 ar
    18    9   11 1
    19   10   40 1
    20   11   15 am
    21   11   12 1
    22   12   13 1
    23   12   41 1
    24   12   42 1
    25   13   14 1
    26   13   43 1
    27   13   44 1
    28   14   15 1
    29   14   17 1
    30   14   45 1
    31   15   16 2
    32   17   18 1
    33   17   46 1
    34   18   19 1
    35   18   47 1
    36   18   48 1
    37   19   20 1
    38   19   49 1
    39   19   50 1
    40   20   24 1
    41   20   21 2
    42   21   22 1
    43   21   51 1
    44   22   23 2
    45   22   58 1
    46   23   24 1
    47   23   52 1
    48   24   25 1
    49   25   26 1
    50   25   53 1
    51   25   54 1
    52   26   31 ar
    53   26   27 ar
    54   27   28 ar
    55   27   55 1
    56   28   29 ar
    57   28   56 1
    58   29   30 ar
    59   29   33 1
    60   30   31 ar
    61   30   32 1
    62   31   57 1
    63   33   34 3
@<TRIPOS>MOLECULE
CHEMBL80702
   59    64     0     0     0
SMALL
USER_CHARGES

@<TRIPOS>ATOM
      1 C1         -0.0167    1.3827    0.0096 C.ar      1 <0>        -0.1011
      2 C2          1.1462    2.0911    0.0023 C.ar      1 <0>        -0.0835
      3 C3          2.3767    1.4178    0.0114 C.ar      1 <0>        -0.0442
      4 C4          3.5796    2.1406   -0.0280 C.ar      1 <0>        -0.0715
      5 C5          4.7571    1.4851    0.1256 C.ar      1 <0>        -0.1199
      6 C6          4.7908    0.0894    0.2845 C.ar      1 <0>         0.1208
      7 C7          3.6508   -0.6488    0.1882 C.ar      1 <0>        -0.1462
      8 C8          2.4095   -0.0048    0.0533 C.ar      1 <0>        -0.0261
      9 C9          1.1965   -0.7087   -0.0147 C.ar      1 <0>         0.1270
     10 C10         0.0021   -0.0041    0.0020 C.ar      1 <0>        -0.1147
     11 N1          1.0879   -2.0861   -0.1741 N.am      1 <0>        -0.5179
     12 C11        -0.0540   -2.8470    0.3599 C.3       1 <0>         0.0755
     13 C12         0.0733   -4.2895   -0.1383 C.3       1 <0>        -0.1424
     14 C13         1.2973   -4.2422   -1.0629 C.3       1 <0>        -0.0147
     15 C14         1.9491   -2.9006   -0.8124 C.2       1 <0>         0.4975
     16 O1          3.0789   -2.6028   -1.1382 O.2       1 <0>        -0.4811
     17 N2          2.2126   -5.3388   -0.7579 N.4       1 <0>        -0.4879
     18 C15         3.5531   -4.8202   -0.4664 C.3       1 <0>        -0.0401
     19 C16         4.3332   -4.6195   -1.7689 C.3       1 <0>        -0.0640
     20 C17         5.3246   -5.7399   -1.9230 C.2       1 <0>         0.0226
     21 C18         5.2979   -6.7027   -2.8637 C.2       1 <0>         0.0193
     22 N3          6.3481   -7.5104   -2.6603 N.pl3     1 <0>        -0.4729
     23 C19         7.0285   -7.0848   -1.6303 C.cat     1 <0>         0.3133
     24 N4          6.4172   -5.9893   -1.1360 N.pl3     1 <0>        -0.4064
     25 C20         6.8461   -5.2212    0.0383 C.3       1 <0>         0.1354
     26 C21         7.0744   -3.7864   -0.3599 C.ar      1 <0>        -0.1110
     27 C22         8.0088   -3.4887   -1.3387 C.ar      1 <0>        -0.1001
     28 C23         8.2333   -2.1776   -1.7035 C.ar      1 <0>        -0.0472
     29 C24         7.5229   -1.1486   -1.0816 C.ar      1 <0>         0.0006
     30 C25         6.5758   -1.4575   -0.0898 C.ar      1 <0>         0.1687
     31 C26         6.3391   -2.7847    0.2363 C.ar      1 <0>        -0.1146
     32 O2          5.9752   -0.4711    0.5940 O.3       1 <0>        -0.2774
     33 C27         7.7582    0.2145   -1.4522 C.1       1 <0>         0.2224
     34 N5          7.9450    1.2958   -1.7462 N.1       1 <0>        -0.3558
     35 H1         -0.9618    1.9052    0.0260 H         1 <0>         0.1425
     36 H2          1.1211    3.1707   -0.0107 H         1 <0>         0.1430
     37 H3          3.5675    3.2098   -0.1797 H         1 <0>         0.1488
     38 H4          5.6815    2.0436    0.1254 H         1 <0>         0.1367
     39 H5          3.7007   -1.7273    0.2152 H         1 <0>         0.1483
     40 H6         -0.9320   -0.5461    0.0092 H         1 <0>         0.1343
     41 H7         -0.0330   -2.8291    1.4496 H         1 <0>         0.1098
     42 H8         -0.9874   -2.4131    0.0016 H         1 <0>         0.1136
     43 H9          0.2471   -4.9702    0.6951 H         1 <0>         0.1157
     44 H10        -0.8170   -4.5842   -0.6940 H         1 <0>         0.1365
     45 H11         0.9680   -4.2951   -2.1057 H         1 <0>         0.1871
     46 H12         1.8696   -5.8465    0.0437 H         1 <0>         0.4382
     47 H13         3.4665   -3.8663    0.0539 H         1 <0>         0.1633
     48 H14         4.0849   -5.5292    0.1681 H         1 <0>         0.1298
     49 H15         3.6426   -4.6250   -2.6123 H         1 <0>         0.1288
     50 H16         4.8617   -3.6669   -1.7345 H         1 <0>         0.1503
     51 H17         4.5597   -6.8061   -3.6452 H         1 <0>         0.2252
     52 H18         7.9292   -7.5349   -1.2398 H         1 <0>         0.2693
     53 H19         6.0729   -5.2671    0.8052 H         1 <0>         0.1262
     54 H20         7.7725   -5.6418    0.4296 H         1 <0>         0.1491
     55 H21         8.5616   -4.2839   -1.8166 H         1 <0>         0.1393
     56 H22         8.9587   -1.9467   -2.4696 H         1 <0>         0.1537
     57 H23         5.5766   -3.0338    0.9595 H         1 <0>         0.1413
     58 H24         6.5680   -8.2896   -3.1945 H         1 <0>         0.4717
     59 H25         2.2610   -5.9629   -1.5492 H         1 <0>         0.4352
@<TRIPOS>BOND
     1    1   10 ar
     2    1    2 ar
     3    1   35 1
     4    2    3 ar
     5    2   36 1
     6    3    8 ar
     7    3    4 ar
     8    4    5 ar
     9    4   37 1
    10    5    6 ar
    11    5   38 1
    12    6   32 1
    13    6    7 ar
    14    7    8 ar
    15    7   39 1
    16    8    9 ar
    17    9   10 ar
    18    9   11 1
    19   10   40 1
    20   11   15 am
    21   11   12 1
    22   12   13 1
    23   12   41 1
    24   12   42 1
    25   13   14 1
    26   13   43 1
    27   13   44 1
    28   14   15 1
    29   14   17 1
    30   14   45 1
    31   15   16 2
    32   17   18 1
    33   17   46 1
    34   17   59 1
    35   18   19 1
    36   18   47 1
    37   18   48 1
    38   19   20 1
    39   19   49 1
    40   19   50 1
    41   20   24 1
    42   20   21 2
    43   21   22 1
    44   21   51 1
    45   22   23 2
    46   22   58 1
    47   23   24 1
    48   23   52 1
    49   24   25 1
    50   25   26 1
    51   25   53 1
    52   25   54 1
    53   26   31 ar
    54   26   27 ar
    55   27   28 ar
    56   27   55 1
    57   28   29 ar
    58   28   56 1
    59   29   30 ar
    60   29   33 1
    61   30   31 ar
    62   30   32 1
    63   31   57 1
    64   33   34 3
@<TRIPOS>MOLECULE
CHEMBL480016
   59    62     0     0     0
SMALL
USER_CHARGES

@<TRIPOS>ATOM
      1 C1         -0.1342    1.5148    0.0865 C.3       1 <0>        -0.1653
      2 C2         -0.0562   -0.0126    0.0432 C.3       1 <0>         0.1631
      3 H1         -1.0539   -0.4334    0.1683 H         1 <0>         0.0788
      4 C3          0.5263   -0.4603   -1.3030 C.3       1 <0>         0.1052
      5 N1          0.8347   -1.8952   -1.2273 N.pl3     1 <0>        -0.9978
      6 C4          1.7144   -2.3748   -0.1522 C.3       1 <0>         0.1013
      7 C5          1.1319   -1.9271    1.1941 C.3       1 <0>         0.1361
      8 N2          0.8202   -0.4924    1.1210 N.pl3     1 <0>        -0.6583
      9 C6          1.3493    0.3960    2.0520 C.ar      1 <0>         0.3936
     10 C7          0.6642    0.6403    3.2406 C.ar      1 <0>         0.0519
     11 C8          1.2032    1.5264    4.1575 C.ar      1 <0>        -0.0565
     12 C9          2.4120    2.1399    3.8542 C.ar      1 <0>        -0.2191
     13 C10         3.0356    1.8508    2.6577 C.ar      1 <0>         0.1567
     14 N3          2.5015    0.9977    1.8036 N.ar      1 <0>        -0.4617
     15 C11         3.0360    3.1119    4.8221 C.3       1 <0>         0.5191
     16 F1          3.8777    2.4204    5.7000 F         1 <0>        -0.1701
     17 F2          3.7798    4.0622    4.1144 F         1 <0>        -0.1701
     18 F3          2.0298    3.7553    5.5506 F         1 <0>        -0.1722
     19 F4         -0.5097    0.0215    3.4943 F         1 <0>        -0.1120
     20 S1          0.2027   -2.9527   -2.3340 S.o2      1 <0>         2.5951
     21 O1          0.1639   -4.2029   -1.6598 O.2       1 <0>        -0.9186
     22 O2         -0.9953   -2.3344   -2.7832 O.2       1 <0>        -0.9504
     23 C12         1.4206   -3.0048   -3.6774 C.3       1 <0>        -0.6018
     24 C13         0.9358   -3.9615   -4.7685 C.3       1 <0>        -0.1131
     25 C14        -0.4026   -3.5731   -5.4677 C.3       1 <0>        -0.1234
     26 C15        -0.3861   -4.3547   -6.8016 C.3       1 <0>        -0.1239
     27 C16         0.9579   -5.1458   -6.7730 C.3       1 <0>        -0.0890
     28 H2          1.3234   -5.5044   -7.7352 H         1 <0>         0.1164
     29 C17         1.8778   -4.1253   -6.0129 C.3       1 <0>        -0.0447
     30 C18         2.0441   -2.8149   -6.7849 C.3       1 <0>        -0.1406
     31 C19         3.2280   -4.7382   -5.6357 C.3       1 <0>        -0.1479
     32 C20         0.7434   -6.2303   -5.6729 C.3       1 <0>        -0.1700
     33 C21         0.7604   -5.4265   -4.3443 C.2       1 <0>         0.3400
     34 O3          0.6384   -5.8542   -3.2216 O.2       1 <0>        -0.3894
     35 H3          0.8685    1.9325   -0.0041 H         1 <0>         0.0683
     36 H4         -0.7518    1.8706   -0.7382 H         1 <0>         0.0800
     37 H5         -0.5748    1.8295    1.0325 H         1 <0>         0.0598
     38 H6         -0.2029   -0.2841   -2.0939 H         1 <0>         0.1012
     39 H7          1.4381    0.0994   -1.5114 H         1 <0>         0.0771
     40 H8          1.7700   -3.4630   -0.1830 H         1 <0>         0.1040
     41 H9          2.7109   -1.9515   -0.2786 H         1 <0>         0.0761
     42 H10         0.2201   -2.4868    1.4024 H         1 <0>         0.0718
     43 H11         1.8611   -2.1033    1.9849 H         1 <0>         0.0836
     44 H12         0.6953    1.7363    5.0872 H         1 <0>         0.1628
     45 H13         3.9756    2.3259    2.4186 H         1 <0>         0.1770
     46 H14         1.5414   -2.0061   -4.0972 H         1 <0>         0.1386
     47 H15         2.3770   -3.3531   -3.2874 H         1 <0>         0.1353
     48 H16        -1.2528   -3.8793   -4.8582 H         1 <0>         0.0755
     49 H17        -0.4356   -2.5000   -5.6562 H         1 <0>         0.0910
     50 H18        -1.2311   -5.0416   -6.8507 H         1 <0>         0.0754
     51 H19        -0.4046   -3.6662   -7.6464 H         1 <0>         0.0793
     52 H20         2.4763   -2.0591   -6.1291 H         1 <0>         0.0588
     53 H21         2.7040   -2.9767   -7.6373 H         1 <0>         0.0644
     54 H22         1.0705   -2.4754   -7.1385 H         1 <0>         0.0675
     55 H23         3.0700   -5.7236   -5.1974 H         1 <0>         0.0589
     56 H24         3.8463   -4.8324   -6.5283 H         1 <0>         0.0683
     57 H25         3.7296   -4.0951   -4.9125 H         1 <0>         0.0605
     58 H26        -0.2073   -6.7413   -5.8244 H         1 <0>         0.1033
     59 H27         1.5653   -6.9463   -5.6809 H         1 <0>         0.0997
@<TRIPOS>BOND
     1    1    2 1
     2    1   35 1
     3    1   36 1
     4    1   37 1
     5    2    3 1
     6    2    8 1
     7    2    4 1
     8    4    5 1
     9    4   38 1
    10    4   39 1
    11    5    6 1
    12    5   20 1
    13    6    7 1
    14    6   40 1
    15    6   41 1
    16    7    8 1
    17    7   42 1
    18    7   43 1
    19    8    9 1
    20    9   14 ar
    21    9   10 ar
    22   10   11 ar
    23   10   19 1
    24   11   12 ar
    25   11   44 1
    26   12   13 ar
    27   12   15 1
    28   13   14 ar
    29   13   45 1
    30   15   16 1
    31   15   17 1
    32   15   18 1
    33   20   21 2
    34   20   22 2
    35   20   23 1
    36   23   24 1
    37   23   46 1
    38   23   47 1
    39   24   29 1
    40   24   33 1
    41   24   25 1
    42   25   26 1
    43   25   48 1
    44   25   49 1
    45   26   27 1
    46   26   50 1
    47   26   51 1
    48   27   28 1
    49   27   29 1
    50   27   32 1
    51   29   30 1
    52   29   31 1
    53   30   52 1
    54   30   53 1
    55   30   54 1
    56   31   55 1
    57   31   56 1
    58   31   57 1
    59   32   33 1
    60   32   58 1
    61   32   59 1
    62   33   34 2
@<TRIPOS>MOLECULE
CHEMBL1172346
   46    49     0     0     0
SMALL
USER_CHARGES

@<TRIPOS>ATOM
      1 C1         -0.0197    1.4055    0.0306 C.ar      1 <0>        -0.0781
      2 C2          1.1648    2.1116    0.0151 C.ar      1 <0>        -0.1273
      3 C3          2.3788    1.4384   -0.0053 C.ar      1 <0>         0.1925
      4 C4          2.4017    0.0356   -0.0096 C.ar      1 <0>        -0.0855
      5 C5          1.2048   -0.6750    0.0066 C.ar      1 <0>        -0.0668
      6 C6         -0.0064    0.0103    0.0265 C.ar      1 <0>        -0.0944
      7 C7         -1.2838   -0.7429    0.0433 C.ar      1 <0>         0.0216
      8 C8         -1.2931   -2.1409    0.0454 C.ar      1 <0>        -0.1740
      9 C9         -2.5038   -2.8020    0.0617 C.ar      1 <0>         0.1009
     10 N1         -3.6407   -2.1328    0.0748 N.ar      1 <0>        -0.4969
     11 C10        -3.6760   -0.8138    0.0734 C.ar      1 <0>         0.1015
     12 C11        -2.5114   -0.0744    0.0634 C.ar      1 <0>        -0.1730
     13 C12         3.6912   -0.6846   -0.0317 C.2       1 <0>        -0.0948
     14 C13         4.3613   -0.7165   -1.1589 C.2       1 <0>        -0.1208
     15 C14         5.6772   -1.4178   -1.3294 C.3       1 <0>        -0.0885
     16 C15         6.3056   -1.6984    0.0372 C.3       1 <0>        -0.1224
     17 C16         5.2508   -2.3629    0.9305 C.3       1 <0>        -0.1166
     18 C17         4.1607   -1.3319    1.2384 C.3       1 <0>        -0.0761
     19 N2          3.5740    2.1557   -0.0219 N.am      1 <0>        -0.6623
     20 C18         3.6485    3.3260   -0.6863 C.2       1 <0>         0.6278
     21 O1          2.6528    3.7970   -1.2015 O.2       1 <0>        -0.5289
     22 C19         4.9378    4.0355   -0.7884 C.2       1 <0>         0.0484
     23 N3          6.1251    3.6083   -0.2594 N.2       1 <0>        -0.5285
     24 C20         7.0617    4.5289   -0.5678 C.2       1 <0>        -0.0062
     25 C21         6.4263    5.5199   -1.2907 C.2       1 <0>        -0.0426
     26 N4          5.1342    5.1765   -1.4062 N.2       1 <0>        -0.4512
     27 C22         7.0379    6.6990   -1.8256 C.1       1 <0>         0.3320
     28 N5          7.5231    7.6345   -2.2499 N.1       1 <0>        -0.4914
     29 H1         -0.9610    1.9345    0.0505 H         1 <0>         0.1263
     30 H2          1.1480    3.1915    0.0184 H         1 <0>         0.1475
     31 H3          1.2160   -1.7549    0.0030 H         1 <0>         0.1266
     32 H4         -0.3662   -2.6951    0.0340 H         1 <0>         0.1356
     33 H5         -2.5211   -3.8819    0.0634 H         1 <0>         0.1541
     34 H6         -4.6293   -0.3063    0.0844 H         1 <0>         0.1548
     35 H7         -2.5476    1.0050    0.0669 H         1 <0>         0.1373
     36 H8          3.9413   -0.2086   -2.0145 H         1 <0>         0.1029
     37 H9          5.5193   -2.3597   -1.8548 H         1 <0>         0.0714
     38 H10         6.3489   -0.7887   -1.9136 H         1 <0>         0.0754
     39 H11         7.1582   -2.3670   -0.0821 H         1 <0>         0.0624
     40 H12         6.6314   -0.7619    0.4898 H         1 <0>         0.0707
     41 H13         4.8160   -3.2167    0.4107 H         1 <0>         0.0621
     42 H14         5.7139   -2.6935    1.8602 H         1 <0>         0.0638
     43 H15         4.5587   -0.5687    1.9072 H         1 <0>         0.0744
     44 H16         3.3206   -1.8306    1.7218 H         1 <0>         0.0692
     45 H17         4.3521    1.8126    0.4447 H         1 <0>         0.4197
     46 H18         8.1076    4.4974   -0.3004 H         1 <0>         0.1477
@<TRIPOS>BOND
     1    1    6 ar
     2    1    2 ar
     3    1   29 1
     4    2    3 ar
     5    2   30 1
     6    3    4 ar
     7    3   19 1
     8    4    5 ar
     9    4   13 1
    10    5    6 ar
    11    5   31 1
    12    6    7 1
    13    7   12 ar
    14    7    8 ar
    15    8    9 ar
    16    8   32 1
    17    9   10 ar
    18    9   33 1
    19   10   11 ar
    20   11   12 ar
    21   11   34 1
    22   12   35 1
    23   13   18 1
    24   13   14 2
    25   14   15 1
    26   14   36 1
    27   15   16 1
    28   15   37 1
    29   15   38 1
    30   16   17 1
    31   16   39 1
    32   16   40 1
    33   17   18 1
    34   17   41 1
    35   17   42 1
    36   18   43 1
    37   18   44 1
    38   19   20 am
    39   19   45 1
    40   20   21 2
    41   20   22 1
    42   22   26 2
    43   22   23 1
    44   23   24 1
    45   24   25 2
    46   24   46 1
    47   25   26 1
    48   25   27 1
    49   27   28 3
@<TRIPOS>MOLECULE
CHEMBL1172346
   47    50     0     0     0
SMALL
USER_CHARGES

@<TRIPOS>ATOM
      1 C1         -0.0197    1.4055    0.0306 C.ar      1 <0>        -0.0833
      2 C2          1.1648    2.1116    0.0151 C.ar      1 <0>        -0.1162
      3 C3          2.3788    1.4384   -0.0053 C.ar      1 <0>         0.1593
      4 C4          2.4017    0.0356   -0.0096 C.ar      1 <0>        -0.0647
      5 C5          1.2048   -0.6750    0.0066 C.ar      1 <0>        -0.0712
      6 C6         -0.0064    0.0103    0.0265 C.ar      1 <0>        -0.0649
      7 C7         -1.2838   -0.7429    0.0433 C.ar      1 <0>         0.0054
      8 C8         -1.2931   -2.1409    0.0454 C.ar      1 <0>        -0.1685
      9 C9         -2.5038   -2.8020    0.0617 C.ar      1 <0>         0.1041
     10 N1         -3.6407   -2.1328    0.0748 N.ar      1 <0>        -0.4885
     11 C10        -3.6760   -0.8138    0.0734 C.ar      1 <0>         0.1041
     12 C11        -2.5114   -0.0744    0.0634 C.ar      1 <0>        -0.1682
     13 C12         3.6912   -0.6846   -0.0317 C.2       1 <0>        -0.0995
     14 C13         4.3613   -0.7165   -1.1589 C.2       1 <0>        -0.1205
     15 C14         5.6772   -1.4178   -1.3294 C.3       1 <0>        -0.0912
     16 C15         6.3056   -1.6984    0.0372 C.3       1 <0>        -0.1226
     17 C16         5.2508   -2.3629    0.9305 C.3       1 <0>        -0.1195
     18 C17         4.1607   -1.3319    1.2384 C.3       1 <0>        -0.0777
     19 N2          3.5740    2.1557   -0.0219 N.am      1 <0>        -0.6392
     20 C18         3.6485    3.3260   -0.6863 C.2       1 <0>         0.6112
     21 O1          2.6528    3.7970   -1.2015 O.2       1 <0>        -0.5119
     22 C19         4.9378    4.0355   -0.7884 C.2       1 <0>         0.1593
     23 N3          5.1415    5.2278   -1.4278 N.pl3     1 <0>        -0.5108
     24 H1          4.4695    5.7523   -1.8907 H         1 <0>         0.4429
     25 C20         6.4470    5.5411   -1.2968 C.2       1 <0>         0.0651
     26 C21         7.0321    4.5228   -0.5694 C.2       1 <0>         0.0606
     27 N4          6.0754    3.6288   -0.2757 N.2       1 <0>        -0.4014
     28 C22         8.4109    4.4391   -0.1918 C.1       1 <0>         0.2938
     29 N5          9.5047    4.3727    0.1078 N.1       1 <0>        -0.3915
     30 H2         -0.9610    1.9345    0.0505 H         1 <0>         0.1324
     31 H3          1.1480    3.1915    0.0184 H         1 <0>         0.1460
     32 H4          1.2160   -1.7549    0.0030 H         1 <0>         0.1334
     33 H5         -0.3662   -2.6951    0.0340 H         1 <0>         0.1368
     34 H6         -2.5211   -3.8819    0.0634 H         1 <0>         0.1577
     35 H7         -4.6293   -0.3063    0.0844 H         1 <0>         0.1580
     36 H8         -2.5476    1.0050    0.0669 H         1 <0>         0.1378
     37 H9          3.9413   -0.2086   -2.0145 H         1 <0>         0.1029
     38 H10         5.5193   -2.3597   -1.8548 H         1 <0>         0.0769
     39 H11         6.3489   -0.7887   -1.9136 H         1 <0>         0.0742
     40 H12         7.1582   -2.3670   -0.0821 H         1 <0>         0.0664
     41 H13         6.6314   -0.7619    0.4898 H         1 <0>         0.0669
     42 H14         4.8160   -3.2167    0.4107 H         1 <0>         0.0656
     43 H15         5.7139   -2.6935    1.8602 H         1 <0>         0.0678
     44 H16         4.5587   -0.5687    1.9072 H         1 <0>         0.0743
     45 H17         3.3206   -1.8306    1.7218 H         1 <0>         0.0732
     46 H18         4.3521    1.8126    0.4447 H         1 <0>         0.4254
     47 H19         6.9403    6.4193   -1.6863 H         1 <0>         0.2096
@<TRIPOS>BOND
     1    1    6 ar
     2    1    2 ar
     3    1   30 1
     4    2    3 ar
     5    2   31 1
     6    3    4 ar
     7    3   19 1
     8    4    5 ar
     9    4   13 1
    10    5    6 ar
    11    5   32 1
    12    6    7 1
    13    7   12 ar
    14    7    8 ar
    15    8    9 ar
    16    8   33 1
    17    9   10 ar
    18    9   34 1
    19   10   11 ar
    20   11   12 ar
    21   11   35 1
    22   12   36 1
    23   13   18 1
    24   13   14 2
    25   14   15 1
    26   14   37 1
    27   15   16 1
    28   15   38 1
    29   15   39 1
    30   16   17 1
    31   16   40 1
    32   16   41 1
    33   17   18 1
    34   17   42 1
    35   17   43 1
    36   18   44 1
    37   18   45 1
    38   19   20 am
    39   19   46 1
    40   20   21 2
    41   20   22 1
    42   22   27 2
    43   22   23 1
    44   23   24 1
    45   23   25 1
    46   25   26 2
    47   25   47 1
    48   26   27 1
    49   26   28 1
    50   28   29 3
@<TRIPOS>MOLECULE
CHEMBL403999
   52    55     0     0     0
SMALL
USER_CHARGES

@<TRIPOS>ATOM
      1 C1          0.6976   -0.2541   -1.2354 C.3       1 <0>        -0.1408
      2 C2         -0.3023   -0.0664   -0.0927 C.3       1 <0>        -0.2142
      3 C3          0.2831   -0.6444    1.1974 C.3       1 <0>         0.1613
      4 H1          1.2770   -0.2297    1.3654 H         1 <0>         0.0864
      5 C4          0.3755   -2.1691    1.0814 C.3       1 <0>        -0.1309
      6 C5          0.8297   -2.7520    2.4216 C.3       1 <0>        -0.1186
      7 C6         -0.1985   -2.4113    3.5027 C.3       1 <0>        -0.1317
      8 C7         -0.2975   -0.8893    3.6461 C.3       1 <0>         0.1972
      9 H2          0.6488   -0.4948    4.0164 H         1 <0>         0.0918
     10 N1         -0.5899   -0.3054    2.3295 N.pl3     1 <0>        -0.9853
     11 S1         -1.8808    0.7114    2.1247 S.o2      1 <0>         2.6727
     12 O1         -2.5755    0.7405    3.3640 O.2       1 <0>        -0.9251
     13 O2         -1.3775    1.8872    1.5057 O.2       1 <0>        -0.9588
     14 C8         -2.9622   -0.0479    0.9590 C.ar      1 <0>        -0.6752
     15 C9         -2.9156    0.3248   -0.3714 C.ar      1 <0>        -0.0068
     16 C10        -3.7635   -0.2704   -1.2863 C.ar      1 <0>        -0.1375
     17 C11        -4.6591   -1.2395   -0.8703 C.ar      1 <0>         0.0202
     18 C12        -4.7053   -1.6121    0.4613 C.ar      1 <0>        -0.1354
     19 C13        -3.8529   -1.0202    1.3742 C.ar      1 <0>        -0.0126
     20 Cl1        -5.7249   -1.9872   -2.0187 Cl        1 <0>        -0.0529
     21 C14        -1.4183   -0.5383    4.6267 C.3       1 <0>        -0.1288
     22 C15        -1.9411   -1.6559    5.5314 C.3       1 <0>        -0.1756
     23 C16        -2.7980   -1.1478    4.3702 C.3       1 <0>        -0.1351
     24 C17        -1.3678    0.8762    5.2077 C.3       1 <0>         0.0364
     25 C18        -2.6089    1.1284    6.0245 C.2       1 <0>         0.2249
     26 N2         -2.7405    0.8892    7.2981 N.2       1 <0>        -0.4939
     27 C19        -3.9821    1.2406    7.6768 C.2       1 <0>        -0.0475
     28 C20        -4.6220    1.7084    6.5923 C.2       1 <0>        -0.0893
     29 O3         -3.7568    1.6409    5.5615 O.3       1 <0>        -0.1767
     30 H3          0.9613   -1.3085   -1.3180 H         1 <0>         0.0605
     31 H4          0.2488    0.0825   -2.1699 H         1 <0>         0.0621
     32 H5          1.5952    0.3300   -1.0323 H         1 <0>         0.0618
     33 H6         -0.5031    0.9962    0.0436 H         1 <0>         0.1079
     34 H7         -1.2310   -0.5837   -0.3339 H         1 <0>         0.0864
     35 H8         -0.6024   -2.5741    0.8212 H         1 <0>         0.0666
     36 H9          1.0964   -2.4320    0.3073 H         1 <0>         0.0780
     37 H10         0.9200   -3.8348    2.3347 H         1 <0>         0.0681
     38 H11         1.7963   -2.3278    2.6932 H         1 <0>         0.0674
     39 H12        -1.1711   -2.8140    3.2197 H         1 <0>         0.0705
     40 H13         0.1138   -2.8466    4.4520 H         1 <0>         0.0829
     41 H14        -2.2167    1.0816   -0.6959 H         1 <0>         0.1533
     42 H15        -3.7273    0.0211   -2.3255 H         1 <0>         0.1448
     43 H16        -5.4044   -2.3683    0.7866 H         1 <0>         0.1433
     44 H17        -3.8855   -1.3144    2.4128 H         1 <0>         0.1552
     45 H18        -1.4866   -2.6412    5.4280 H         1 <0>         0.1006
     46 H19        -2.2491   -1.3836    6.5409 H         1 <0>         0.1046
     47 H20        -3.6697   -0.5412    4.6157 H         1 <0>         0.1105
     48 H21        -2.9072   -1.7988    3.5028 H         1 <0>         0.0879
     49 H22        -0.4880    0.9767    5.8433 H         1 <0>         0.0921
     50 H23        -1.3139    1.6010    4.3954 H         1 <0>         0.0884
     51 H24        -4.3911    1.1607    8.6731 H         1 <0>         0.1792
     52 H25        -5.6378    2.0734    6.5545 H         1 <0>         0.2095
@<TRIPOS>BOND
     1    1    2 1
     2    1   30 1
     3    1   31 1
     4    1   32 1
     5    2    3 1
     6    2   33 1
     7    2   34 1
     8    3    4 1
     9    3   10 1
    10    3    5 1
    11    5    6 1
    12    5   35 1
    13    5   36 1
    14    6    7 1
    15    6   37 1
    16    6   38 1
    17    7    8 1
    18    7   39 1
    19    7   40 1
    20    8    9 1
    21    8   10 1
    22    8   21 1
    23   10   11 1
    24   11   12 2
    25   11   13 2
    26   11   14 1
    27   14   19 ar
    28   14   15 ar
    29   15   16 ar
    30   15   41 1
    31   16   17 ar
    32   16   42 1
    33   17   18 ar
    34   17   20 1
    35   18   19 ar
    36   18   43 1
    37   19   44 1
    38   21   23 1
    39   21   22 1
    40   21   24 1
    41   22   23 1
    42   22   45 1
    43   22   46 1
    44   23   47 1
    45   23   48 1
    46   24   25 1
    47   24   49 1
    48   24   50 1
    49   25   29 1
    50   25   26 2
    51   26   27 1
    52   27   28 2
    53   27   51 1
    54   28   29 1
    55   28   52 1
@<TRIPOS>MOLECULE
CHEMBL248880
   66    68     0     0     0
SMALL
USER_CHARGES

@<TRIPOS>ATOM
      1 C1         -1.6263    1.0429    1.8051 C.3       1 <0>        -0.1491
      2 C2         -1.0045   -0.0035    0.8782 C.3       1 <0>        -0.1227
      3 C3         -0.1180    0.6935   -0.1558 C.3       1 <0>        -0.0982
      4 C4         -0.1587   -0.9764    1.7021 C.3       1 <0>         0.1573
      5 H1         -0.7099   -1.2753    2.5937 H         1 <0>         0.0777
      6 C5          1.1519   -0.2974    2.1122 C.3       1 <0>        -0.1302
      7 C6          2.0517   -1.3166    2.8148 C.3       1 <0>        -0.1192
      8 C7          2.3806   -2.4591    1.8512 C.3       1 <0>        -0.1245
      9 C8          1.0840   -3.1626    1.4382 C.3       1 <0>         0.1578
     10 H2          0.6353   -3.6420    2.3082 H         1 <0>         0.0994
     11 N1          0.1530   -2.1638    0.8948 N.pl3     1 <0>        -0.9839
     12 S1         -0.5282   -2.3699   -0.6005 S.o2      1 <0>         2.6700
     13 O1         -0.9264   -1.0809   -1.0466 O.2       1 <0>        -0.9319
     14 O2          0.3626   -3.1914   -1.3428 O.2       1 <0>        -0.9349
     15 C9         -2.0054   -3.3037   -0.3757 C.ar      1 <0>        -0.6803
     16 C10        -1.9788   -4.6800   -0.5025 C.ar      1 <0>        -0.0123
     17 C11        -3.1372   -5.4131   -0.3263 C.ar      1 <0>        -0.1285
     18 C12        -4.3236   -4.7691   -0.0230 C.ar      1 <0>         0.0167
     19 C13        -4.3496   -3.3916    0.1038 C.ar      1 <0>        -0.1301
     20 C14        -3.1893   -2.6602   -0.0671 C.ar      1 <0>        -0.0103
     21 Cl1        -5.7791   -5.6891    0.1979 Cl        1 <0>        -0.0516
     22 C15         1.3896   -4.2169    0.3723 C.3       1 <0>         0.0633
     23 O3          2.2615   -3.6593   -0.6130 O.3       1 <0>        -0.3277
     24 C16         2.6748   -4.4792   -1.5978 C.2       1 <0>         0.6736
     25 O4          2.2806   -5.6279   -1.6374 O.2       1 <0>        -0.5798
     26 N2          3.5257   -4.0259   -2.5395 N.am      1 <0>        -0.5986
     27 C17         4.1000   -2.6747   -2.4505 C.3       1 <0>         0.1211
     28 C18         5.6209   -2.7812   -2.6038 C.3       1 <0>         0.0407
     29 N3          5.9355   -3.5097   -3.8400 N.3       1 <0>        -0.5284
     30 C19         5.4332   -4.8892   -3.7882 C.3       1 <0>         0.0373
     31 C20         3.9093   -4.8713   -3.6802 C.3       1 <0>         0.1353
     32 C21         7.3787   -3.4848   -4.1130 C.3       1 <0>         0.0544
     33 C22         7.6413   -4.0288   -5.5187 C.3       1 <0>         0.0787
     34 O5          7.0586   -3.1523   -6.4853 O.3       1 <0>        -0.5589
     35 H3         -0.8352    1.5918    2.3159 H         1 <0>         0.0583
     36 H4         -2.2289    1.7360    1.2181 H         1 <0>         0.0624
     37 H5         -2.2579    0.5463    2.5418 H         1 <0>         0.0534
     38 H6         -1.7957   -0.5525    0.3675 H         1 <0>         0.0947
     39 H7          0.3952    1.5333    0.3127 H         1 <0>         0.0336
     40 H8          0.6174   -0.0135   -0.5396 H         1 <0>         0.0454
     41 H9         -0.7352    1.0574   -0.9772 H         1 <0>         0.0651
     42 H10         1.6574    0.0835    1.2248 H         1 <0>         0.0776
     43 H11         0.9372    0.5276    2.7914 H         1 <0>         0.0772
     44 H12         2.9749   -0.8298    3.1295 H         1 <0>         0.0686
     45 H13         1.5357   -1.7153    3.6882 H         1 <0>         0.0636
     46 H14         2.8746   -2.0578    0.9663 H         1 <0>         0.0809
     47 H15         3.0405   -3.1727    2.3447 H         1 <0>         0.0761
     48 H16        -1.0527   -5.1826   -0.7397 H         1 <0>         0.1506
     49 H17        -3.1164   -6.4883   -0.4258 H         1 <0>         0.1457
     50 H18        -5.2754   -2.8884    0.3403 H         1 <0>         0.1454
     51 H19        -3.2085   -1.5854    0.0366 H         1 <0>         0.1483
     52 H20         1.8711   -5.0763    0.8389 H         1 <0>         0.0803
     53 H21         0.4608   -4.5339   -0.1020 H         1 <0>         0.0814
     54 H22         3.6944   -2.0513   -3.2474 H         1 <0>         0.0777
     55 H23         3.8593   -2.2377   -1.4814 H         1 <0>         0.0926
     56 H24         6.0527   -1.7815   -2.6508 H         1 <0>         0.0895
     57 H25         6.0359   -3.3172   -1.7502 H         1 <0>         0.0381
     58 H26         5.7288   -5.4182   -4.6942 H         1 <0>         0.0911
     59 H27         5.8508   -5.3958   -2.9181 H         1 <0>         0.0385
     60 H28         3.5427   -5.8858   -3.5238 H         1 <0>         0.0986
     61 H29         3.4851   -4.4631   -4.5976 H         1 <0>         0.0783
     62 H30         7.7435   -2.4599   -4.0461 H         1 <0>         0.0851
     63 H31         7.8976   -4.1038   -3.3811 H         1 <0>         0.0485
     64 H32         8.7161   -4.0936   -5.6883 H         1 <0>         0.0489
     65 H33         7.1981   -5.0201   -5.6134 H         1 <0>         0.0461
     66 H34         7.1864   -3.4358   -7.4009 H         1 <0>         0.3758
@<TRIPOS>BOND
     1    1    2 1
     2    1   35 1
     3    1   36 1
     4    1   37 1
     5    2    3 1
     6    2    4 1
     7    2   38 1
     8    3   39 1
     9    3   40 1
    10    3   41 1
    11    4    5 1
    12    4   11 1
    13    4    6 1
    14    6    7 1
    15    6   42 1
    16    6   43 1
    17    7    8 1
    18    7   44 1
    19    7   45 1
    20    8    9 1
    21    8   46 1
    22    8   47 1
    23    9   10 1
    24    9   11 1
    25    9   22 1
    26   11   12 1
    27   12   13 2
    28   12   14 2
    29   12   15 1
    30   15   20 ar
    31   15   16 ar
    32   16   17 ar
    33   16   48 1
    34   17   18 ar
    35   17   49 1
    36   18   19 ar
    37   18   21 1
    38   19   20 ar
    39   19   50 1
    40   20   51 1
    41   22   23 1
    42   22   52 1
    43   22   53 1
    44   23   24 1
    45   24   25 2
    46   24   26 am
    47   26   31 1
    48   26   27 1
    49   27   28 1
    50   27   54 1
    51   27   55 1
    52   28   29 1
    53   28   56 1
    54   28   57 1
    55   29   30 1
    56   29   32 1
    57   30   31 1
    58   30   58 1
    59   30   59 1
    60   31   60 1
    61   31   61 1
    62   32   33 1
    63   32   62 1
    64   32   63 1
    65   33   34 1
    66   33   64 1
    67   33   65 1
    68   34   66 1
@<TRIPOS>MOLECULE
CHEMBL401122
   64    67     0     0     0
SMALL
USER_CHARGES

@<TRIPOS>ATOM
      1 C1         -2.2579   -2.5765    1.5713 C.ar      1 <0>        -0.0106
      2 C2         -3.2194   -2.9399    2.4953 C.ar      1 <0>        -0.1286
      3 C3         -4.1980   -2.0353    2.8671 C.ar      1 <0>         0.0182
      4 C4         -4.2136   -0.7674    2.3136 C.ar      1 <0>        -0.1288
      5 C5         -3.2515   -0.4052    1.3897 C.ar      1 <0>        -0.0084
      6 C6         -2.2740   -1.3095    1.0186 C.ar      1 <0>        -0.6769
      7 S1         -1.0476   -0.8468   -0.1589 S.o2      1 <0>         2.6720
      8 O1         -0.9605    0.5710   -0.1188 O.2       1 <0>        -0.9406
      9 O2          0.0754   -1.6859    0.0733 O.2       1 <0>        -0.9334
     10 N1         -1.6327   -1.2428   -1.6566 N.pl3     1 <0>        -0.9810
     11 C7         -2.3246   -0.2408   -2.4789 C.3       1 <0>         0.1527
     12 H1         -3.3708   -0.5234   -2.5959 H         1 <0>         0.0903
     13 C8         -1.6518   -0.1817   -3.8539 C.3       1 <0>        -0.1253
     14 C9         -1.6235   -1.5849   -4.4643 C.3       1 <0>        -0.1185
     15 C10        -0.8068   -2.5171   -3.5666 C.3       1 <0>        -0.1356
     16 C11        -1.4646   -2.6011   -2.1909 C.3       1 <0>         0.1902
     17 H2         -2.4391   -3.0804   -2.2838 H         1 <0>         0.0854
     18 C12        -0.5765   -3.4164   -1.2489 C.3       1 <0>        -0.1930
     19 C13         0.8638   -3.6834   -1.6905 C.3       1 <0>        -0.1529
     20 C14        -0.1631   -4.8175   -1.7039 C.3       1 <0>        -0.1748
     21 C15        -2.2357    1.1283   -1.8019 C.3       1 <0>         0.0637
     22 O3         -2.9280    2.0966   -2.5927 O.3       1 <0>        -0.3668
     23 C16        -2.8594    3.3787   -2.1874 C.2       1 <0>         0.6519
     24 O4         -2.1548    3.6811   -1.2447 O.2       1 <0>        -0.5557
     25 N2         -3.5724    4.3267   -2.8272 N.am      1 <0>        -0.5977
     26 C17        -4.5186    3.9680   -3.8946 C.3       1 <0>         0.1178
     27 C18        -5.8688    4.6251   -3.5893 C.3       1 <0>         0.0404
     28 N3         -5.6741    6.0675   -3.3908 N.3       1 <0>        -0.5286
     29 C19        -4.8181    6.3346   -2.2272 C.3       1 <0>         0.0368
     30 C20        -3.4293    5.7469   -2.4725 C.3       1 <0>         0.1336
     31 C21        -6.9633    6.7606   -3.2662 C.3       1 <0>         0.0544
     32 C22        -6.7358    8.2729   -3.3116 C.3       1 <0>         0.0785
     33 O5         -6.2318    8.6404   -4.5973 O.3       1 <0>        -0.5592
     34 Cl1        -5.4064   -2.4912    4.0272 Cl        1 <0>        -0.0504
     35 H3         -1.4913   -3.2810    1.2844 H         1 <0>         0.1510
     36 H4         -3.2070   -3.9299    2.9268 H         1 <0>         0.1467
     37 H5         -4.9775   -0.0610    2.6032 H         1 <0>         0.1456
     38 H6         -3.2638    0.5844    0.9573 H         1 <0>         0.1472
     39 H7         -2.2139    0.4872   -4.5056 H         1 <0>         0.0856
     40 H8         -0.6323    0.1880   -3.7445 H         1 <0>         0.0711
     41 H9         -2.6418   -1.9639   -4.5506 H         1 <0>         0.0666
     42 H10        -1.1674   -1.5415   -5.4533 H         1 <0>         0.0713
     43 H11        -0.7674   -3.5104   -4.0137 H         1 <0>         0.0805
     44 H12         0.2048   -2.1254   -3.4599 H         1 <0>         0.0783
     45 H13        -0.7572   -3.2658   -0.1846 H         1 <0>         0.1260
     46 H14         1.1787   -3.2782   -2.6522 H         1 <0>         0.0991
     47 H15         1.6311   -3.7084   -0.9167 H         1 <0>         0.0990
     48 H16        -0.0715   -5.5885   -0.9389 H         1 <0>         0.0966
     49 H17        -0.5239   -5.1584   -2.6744 H         1 <0>         0.0955
     50 H18        -2.6905    1.0748   -0.8128 H         1 <0>         0.0771
     51 H19        -1.1896    1.4188   -1.7055 H         1 <0>         0.1168
     52 H20        -4.1440    4.3289   -4.8525 H         1 <0>         0.0806
     53 H21        -4.6379    2.8851   -3.9294 H         1 <0>         0.0957
     54 H22        -6.5500    4.4616   -4.4243 H         1 <0>         0.0911
     55 H23        -6.2902    4.1871   -2.6845 H         1 <0>         0.0385
     56 H24        -4.7373    7.4108   -2.0744 H         1 <0>         0.0929
     57 H25        -5.2541    5.8727   -1.3414 H         1 <0>         0.0394
     58 H26        -2.8289    5.8396   -1.5676 H         1 <0>         0.1006
     59 H27        -2.9480    6.2821   -3.2911 H         1 <0>         0.0813
     60 H28        -7.6150    6.4663   -4.0888 H         1 <0>         0.0856
     61 H29        -7.4302    6.4917   -2.3187 H         1 <0>         0.0489
     62 H30        -7.6793    8.7878   -3.1304 H         1 <0>         0.0495
     63 H31        -6.0147    8.5551   -2.5444 H         1 <0>         0.0463
     64 H32        -6.0640    9.5874   -4.6980 H         1 <0>         0.3763
@<TRIPOS>BOND
     1    1    6 ar
     2    1    2 ar
     3    1   35 1
     4    2    3 ar
     5    2   36 1
     6    3    4 ar
     7    3   34 1
     8    4    5 ar
     9    4   37 1
    10    5    6 ar
    11    5   38 1
    12    6    7 1
    13    7    8 2
    14    7    9 2
    15    7   10 1
    16   10   16 1
    17   10   11 1
    18   11   12 1
    19   11   13 1
    20   11   21 1
    21   13   14 1
    22   13   39 1
    23   13   40 1
    24   14   15 1
    25   14   41 1
    26   14   42 1
    27   15   16 1
    28   15   43 1
    29   15   44 1
    30   16   17 1
    31   16   18 1
    32   18   20 1
    33   18   19 1
    34   18   45 1
    35   19   20 1
    36   19   46 1
    37   19   47 1
    38   20   48 1
    39   20   49 1
    40   21   22 1
    41   21   50 1
    42   21   51 1
    43   22   23 1
    44   23   24 2
    45   23   25 am
    46   25   30 1
    47   25   26 1
    48   26   27 1
    49   26   52 1
    50   26   53 1
    51   27   28 1
    52   27   54 1
    53   27   55 1
    54   28   29 1
    55   28   31 1
    56   29   30 1
    57   29   56 1
    58   29   57 1
    59   30   58 1
    60   30   59 1
    61   31   32 1
    62   31   60 1
    63   31   61 1
    64   32   33 1
    65   32   62 1
    66   32   63 1
    67   33   64 1
@<TRIPOS>MOLECULE
CHEMBL1210558
   35    36     0     0     0
SMALL
USER_CHARGES

@<TRIPOS>ATOM
      1 C1         -0.0184    1.5028    0.0103 C.3       1 <0>        -0.0963
      2 C2          0.0021   -0.0041    0.0020 C.2       1 <0>         0.1059
      3 C3          0.0079   -0.7958   -1.0953 C.2       1 <0>        -0.2238
      4 C4          0.0284   -2.1267   -0.6656 C.2       1 <0>         0.0945
      5 N1          0.0347   -2.1338    0.6427 N.2       1 <0>        -0.2946
      6 N2          0.0237   -0.8054    1.0876 N.pl3     1 <0>        -0.4745
      7 H1          0.0286   -0.5133    2.0125 H         1 <0>         0.4384
      8 C5          0.0404   -3.3426   -1.5559 C.3       1 <0>        -0.0758
      9 C6         -0.0058   -0.3266   -2.5273 C.3       1 <0>        -0.0582
     10 C7          1.4103   -0.1500   -3.0116 C.2       1 <0>         0.5144
     11 O1          2.3392   -0.3823   -2.2673 O.2       1 <0>        -0.5250
     12 N3          1.6445    0.2661   -4.2720 N.am      1 <0>        -0.7296
     13 C8          3.0211    0.4378   -4.7428 C.3       1 <0>         0.1597
     14 C9          3.0074    0.9071   -6.1748 C.ar      1 <0>        -0.0975
     15 C10         3.2174    0.0038   -7.2001 C.ar      1 <0>        -0.0743
     16 C11         3.2050    0.4334   -8.5135 C.ar      1 <0>        -0.1059
     17 C12         2.9819    1.7680   -8.8032 C.ar      1 <0>        -0.0175
     18 C13         2.7712    2.6721   -7.7779 C.ar      1 <0>        -0.1043
     19 C14         2.7790    2.2406   -6.4634 C.ar      1 <0>        -0.0113
     20 Cl1         2.5087    3.3735   -5.1761 Cl        1 <0>        -0.0457
     21 Cl2         2.9669    2.3076  -10.4532 Cl        1 <0>        -0.0510
     22 H2          1.0042    1.8801    0.0026 H         1 <0>         0.0829
     23 H3         -0.5455    1.8639   -0.8728 H         1 <0>         0.0848
     24 H4         -0.5286    1.8543    0.9071 H         1 <0>         0.0726
     25 H5          1.0708   -3.6217   -1.7759 H         1 <0>         0.0782
     26 H6         -0.4595   -4.1685   -1.0497 H         1 <0>         0.0741
     27 H7         -0.4815   -3.1172   -2.4858 H         1 <0>         0.0752
     28 H8         -0.5122   -1.0664   -3.1473 H         1 <0>         0.1011
     29 H9         -0.5335    0.6249   -2.5928 H         1 <0>         0.0981
     30 H10         0.9016    0.4520   -4.8673 H         1 <0>         0.4012
     31 H11         3.5276    1.1776   -4.1229 H         1 <0>         0.0839
     32 H12         3.5488   -0.5137   -4.6773 H         1 <0>         0.0827
     33 H13         3.3916   -1.0379   -6.9745 H         1 <0>         0.1462
     34 H14         3.3699   -0.2726   -9.3141 H         1 <0>         0.1442
     35 H15         2.5970    3.7138   -8.0035 H         1 <0>         0.1472
@<TRIPOS>BOND
     1    1    2 1
     2    1   22 1
     3    1   23 1
     4    1   24 1
     5    2    6 1
     6    2    3 2
     7    3    4 1
     8    3    9 1
     9    4    5 2
    10    4    8 1
    11    5    6 1
    12    6    7 1
    13    8   25 1
    14    8   26 1
    15    8   27 1
    16    9   10 1
    17    9   28 1
    18    9   29 1
    19   10   11 2
    20   10   12 am
    21   12   13 1
    22   12   30 1
    23   13   14 1
    24   13   31 1
    25   13   32 1
    26   14   19 ar
    27   14   15 ar
    28   15   16 ar
    29   15   33 1
    30   16   17 ar
    31   16   34 1
    32   17   18 ar
    33   17   21 1
    34   18   19 ar
    35   18   35 1
    36   19   20 1
@<TRIPOS>MOLECULE
CHEMBL1097187
   59    63     0     0     0
SMALL
USER_CHARGES

@<TRIPOS>ATOM
      1 C1         -0.6213    1.6508    0.1700 C.3       1 <0>         0.0467
      2 N1          0.7069    1.1561    0.5406 N.pl3     1 <0>        -0.3901
      3 C2          1.8790    1.4971   -0.0371 C.cat     1 <0>         0.2930
      4 N2          2.8435    0.8542    0.5623 N.pl3     1 <0>        -0.4739
      5 C3          2.3271    0.0876    1.5342 C.2       1 <0>         0.0150
      6 C4          0.9924    0.2666    1.5411 C.2       1 <0>         0.0256
      7 C5          0.0028   -0.3890    2.4696 C.3       1 <0>         0.2916
      8 C6         -0.5812    0.6476    3.3944 C.ar      1 <0>        -0.1041
      9 C7          0.2546    1.4834    4.1113 C.ar      1 <0>        -0.0934
     10 C8         -0.2805    2.4344    4.9596 C.ar      1 <0>        -0.1063
     11 C9         -1.6529    2.5497    5.0913 C.ar      1 <0>        -0.0175
     12 C10        -2.4889    1.7129    4.3737 C.ar      1 <0>        -0.1059
     13 C11        -1.9527    0.7661    3.5213 C.ar      1 <0>        -0.0717
     14 Cl1        -2.3257    3.7434    6.1571 Cl        1 <0>        -0.0479
     15 C12         0.7017   -1.4494    3.2809 C.ar      1 <0>        -0.1647
     16 C13         1.5281   -2.3672    2.6480 C.ar      1 <0>        -0.0737
     17 C14         2.1765   -3.3448    3.3715 C.ar      1 <0>        -0.1554
     18 C15         2.0018   -3.4138    4.7501 C.ar      1 <0>         0.2113
     19 C16         1.1637   -2.4817    5.3860 C.ar      1 <0>        -0.1061
     20 C17         0.5208   -1.4960    4.6350 C.ar      1 <0>        -0.0103
     21 C18         0.9864   -2.5642    6.8453 C.2       1 <0>         0.0406
     22 C19         1.6558   -3.5601    7.5283 C.2       1 <0>        -0.1697
     23 C20         2.4786   -4.4592    6.8286 C.2       1 <0>         0.5339
     24 O1          3.0623   -5.3331    7.4473 O.2       1 <0>        -0.5120
     25 N3          2.6404   -4.3824    5.4971 N.am      1 <0>        -0.5210
     26 C21         3.5116   -5.3487    4.8238 C.3       1 <0>         0.0575
     27 C22         0.1160   -1.6068    7.5596 C.ar      1 <0>        -0.1456
     28 C23        -1.2393   -1.8945    7.7480 C.ar      1 <0>         0.1529
     29 C24        -2.0464   -0.9941    8.4175 C.ar      1 <0>        -0.1598
     30 C25        -1.5168    0.1890    8.9002 C.ar      1 <0>        -0.0431
     31 C26        -0.1772    0.4813    8.7176 C.ar      1 <0>        -0.1606
     32 C27         0.6447   -0.4112    8.0557 C.ar      1 <0>         0.1509
     33 F1          1.9542   -0.1267    7.8836 F         1 <0>        -0.1225
     34 F2         -1.7586   -3.0492    7.2765 F         1 <0>        -0.1202
     35 O2         -1.0443   -0.9881    1.7037 O.3       1 <0>        -0.3493
     36 C28        -0.5876   -1.9342    0.7349 C.3       1 <0>         0.0122
     37 H1         -0.8456    2.5521    0.7404 H         1 <0>         0.1123
     38 H2         -0.6390    1.8811   -0.8952 H         1 <0>         0.1183
     39 H3         -1.3676    0.8871    0.3890 H         1 <0>         0.1261
     40 H4          1.9982    2.1870   -0.8594 H         1 <0>         0.2653
     41 H5          2.8844   -0.5571    2.1977 H         1 <0>         0.2249
     42 H6          1.3259    1.3931    4.0086 H         1 <0>         0.1289
     43 H7          0.3726    3.0871    5.5199 H         1 <0>         0.1414
     44 H8         -3.5603    1.8022    4.4763 H         1 <0>         0.1442
     45 H9         -2.6052    0.1160    2.9574 H         1 <0>         0.1485
     46 H10         1.6643   -2.3151    1.5779 H         1 <0>         0.1337
     47 H11         2.8174   -4.0550    2.8701 H         1 <0>         0.1485
     48 H12        -0.1201   -0.7756    5.1215 H         1 <0>         0.1412
     49 H13         1.5475   -3.6478    8.5992 H         1 <0>         0.1636
     50 H14         4.5287   -4.9583    4.7890 H         1 <0>         0.0791
     51 H15         3.5025   -6.2903    5.3728 H         1 <0>         0.1001
     52 H16         3.1519   -5.5165    3.8086 H         1 <0>         0.0868
     53 H17        -3.0934   -1.2148    8.5639 H         1 <0>         0.1514
     54 H18        -2.1528    0.8886    9.4221 H         1 <0>         0.1510
     55 H19         0.2285    1.4074    9.0971 H         1 <0>         0.1500
     56 H20         0.1771   -1.4734    0.1095 H         1 <0>         0.0381
     57 H21        -0.1667   -2.8012    1.2441 H         1 <0>         0.0666
     58 H22        -1.4248   -2.2495    0.1122 H         1 <0>         0.1064
     59 H23         3.7854    0.9200    0.3398 H         1 <0>         0.4675
@<TRIPOS>BOND
     1    1    2 1
     2    1   37 1
     3    1   38 1
     4    1   39 1
     5    2    6 1
     6    2    3 1
     7    3    4 2
     8    3   40 1
     9    4    5 1
    10    4   59 1
    11    5    6 2
    12    5   41 1
    13    6    7 1
    14    7    8 1
    15    7   15 1
    16    7   35 1
    17    8   13 ar
    18    8    9 ar
    19    9   10 ar
    20    9   42 1
    21   10   11 ar
    22   10   43 1
    23   11   12 ar
    24   11   14 1
    25   12   13 ar
    26   12   44 1
    27   13   45 1
    28   15   20 ar
    29   15   16 ar
    30   16   17 ar
    31   16   46 1
    32   17   18 ar
    33   17   47 1
    34   18   25 1
    35   18   19 ar
    36   19   20 ar
    37   19   21 1
    38   20   48 1
    39   21   22 2
    40   21   27 1
    41   22   23 1
    42   22   49 1
    43   23   24 2
    44   23   25 am
    45   25   26 1
    46   26   50 1
    47   26   51 1
    48   26   52 1
    49   27   32 ar
    50   27   28 ar
    51   28   29 ar
    52   28   34 1
    53   29   30 ar
    54   29   53 1
    55   30   31 ar
    56   30   54 1
    57   31   32 ar
    58   31   55 1
    59   32   33 1
    60   35   36 1
    61   36   56 1
    62   36   57 1
    63   36   58 1
@<TRIPOS>MOLECULE
CHEMBL1097187
   58    62     0     0     0
SMALL
USER_CHARGES

@<TRIPOS>ATOM
      1 C1         -0.0936    2.2723    1.0464 C.3       1 <0>         0.0629
      2 N1          0.5026    2.1160    2.3754 N.pl3     1 <0>        -0.4421
      3 C2          1.0583    3.0928    3.1242 C.2       1 <0>         0.1918
      4 N2          1.4804    2.5726    4.2441 N.2       1 <0>        -0.4872
      5 C3          1.2121    1.2584    4.2503 C.2       1 <0>        -0.0001
      6 C4          0.5951    0.9538    3.0926 C.2       1 <0>        -0.0155
      7 C5          0.1039   -0.4059    2.6671 C.3       1 <0>         0.2921
      8 C6         -1.3991   -0.3861    2.5598 C.ar      1 <0>        -0.1088
      9 C7         -2.1746   -0.7031    3.6595 C.ar      1 <0>        -0.1062
     10 C8         -3.5531   -0.6852    3.5617 C.ar      1 <0>        -0.1039
     11 C9         -4.1570   -0.3499    2.3629 C.ar      1 <0>        -0.0267
     12 C10        -3.3804   -0.0327    1.2627 C.ar      1 <0>        -0.1098
     13 C11        -2.0020   -0.0455    1.3633 C.ar      1 <0>        -0.0974
     14 Cl1        -5.8884   -0.3277    2.2391 Cl        1 <0>        -0.0632
     15 C12         0.5212   -1.4328    3.6880 C.ar      1 <0>        -0.1324
     16 C13         1.3109   -2.5065    3.3012 C.ar      1 <0>        -0.0506
     17 C14         1.7034   -3.4567    4.2191 C.ar      1 <0>        -0.1587
     18 C15         1.3051   -3.3400    5.5471 C.ar      1 <0>         0.1998
     19 C16         0.5053   -2.2506    5.9334 C.ar      1 <0>        -0.1122
     20 C17         0.1235   -1.2963    4.9887 C.ar      1 <0>        -0.0467
     21 C18         0.0898   -2.1372    7.3413 C.2       1 <0>         0.0472
     22 C19         0.5070   -3.1127    8.2249 C.2       1 <0>        -0.1812
     23 C20         1.3061   -4.1755    7.7702 C.2       1 <0>         0.5358
     24 O1          1.6655   -5.0287    8.5639 O.2       1 <0>        -0.5282
     25 N3          1.6855   -4.2774    6.4854 N.am      1 <0>        -0.5195
     26 C21         2.5191   -5.4088    6.0716 C.3       1 <0>         0.0603
     27 C22        -0.7506   -1.0099    7.7964 C.ar      1 <0>        -0.1439
     28 C23        -2.1445   -1.1195    7.7766 C.ar      1 <0>         0.1477
     29 C24        -2.9232   -0.0608    8.2043 C.ar      1 <0>        -0.1635
     30 C25        -2.3274    1.1049    8.6506 C.ar      1 <0>        -0.0474
     31 C26        -0.9493    1.2216    8.6729 C.ar      1 <0>        -0.1591
     32 C27        -0.1561    0.1699    8.2544 C.ar      1 <0>         0.1559
     33 F1          1.1898    0.2835    8.2826 F         1 <0>        -0.1177
     34 F2         -2.7284   -2.2570    7.3402 F         1 <0>        -0.1214
     35 O2          0.6678   -0.7401    1.3973 O.3       1 <0>        -0.3629
     36 C28         0.1477   -1.9437    0.8291 C.3       1 <0>        -0.0016
     37 H1         -1.1536    2.5050    1.1487 H         1 <0>         0.0772
     38 H2          0.4069    3.0828    0.5166 H         1 <0>         0.0898
     39 H3          0.0223    1.3452    0.4849 H         1 <0>         0.0958
     40 H4          1.1404    4.1322    2.8427 H         1 <0>         0.2083
     41 H5          1.4461    0.5666    5.0459 H         1 <0>         0.1677
     42 H6         -1.7030   -0.9652    4.5951 H         1 <0>         0.1463
     43 H7         -4.1588   -0.9332    4.4208 H         1 <0>         0.1365
     44 H8         -3.8512    0.2288    0.3266 H         1 <0>         0.1378
     45 H9         -1.3957    0.2067    0.5058 H         1 <0>         0.1383
     46 H10         1.6205   -2.5986    2.2707 H         1 <0>         0.1489
     47 H11         2.3177   -4.2890    3.9087 H         1 <0>         0.1444
     48 H12        -0.4871   -0.4556    5.2835 H         1 <0>         0.1428
     49 H13         0.2199   -3.0587    9.2646 H         1 <0>         0.1594
     50 H14         3.5709   -5.1416    6.1735 H         1 <0>         0.0766
     51 H15         2.3005   -6.2708    6.7018 H         1 <0>         0.0958
     52 H16         2.3061   -5.6557    5.0315 H         1 <0>         0.0860
     53 H17        -3.9999   -0.1438    8.1897 H         1 <0>         0.1493
     54 H18        -2.9415    1.9287    8.9832 H         1 <0>         0.1494
     55 H19        -0.4917    2.1353    9.0225 H         1 <0>         0.1508
     56 H20        -0.8840   -1.7819    0.5168 H         1 <0>         0.0543
     57 H21         0.7487   -2.2268   -0.0350 H         1 <0>         0.0960
     58 H22         0.1817   -2.7405    1.5721 H         1 <0>         0.0630
@<TRIPOS>BOND
     1    1    2 1
     2    1   37 1
     3    1   38 1
     4    1   39 1
     5    2    6 1
     6    2    3 1
     7    3    4 2
     8    3   40 1
     9    4    5 1
    10    5    6 2
    11    5   41 1
    12    6    7 1
    13    7    8 1
    14    7   15 1
    15    7   35 1
    16    8   13 ar
    17    8    9 ar
    18    9   10 ar
    19    9   42 1
    20   10   11 ar
    21   10   43 1
    22   11   12 ar
    23   11   14 1
    24   12   13 ar
    25   12   44 1
    26   13   45 1
    27   15   20 ar
    28   15   16 ar
    29   16   17 ar
    30   16   46 1
    31   17   18 ar
    32   17   47 1
    33   18   25 1
    34   18   19 ar
    35   19   20 ar
    36   19   21 1
    37   20   48 1
    38   21   22 2
    39   21   27 1
    40   22   23 1
    41   22   49 1
    42   23   24 2
    43   23   25 am
    44   25   26 1
    45   26   50 1
    46   26   51 1
    47   26   52 1
    48   27   32 ar
    49   27   28 ar
    50   28   29 ar
    51   28   34 1
    52   29   30 ar
    53   29   53 1
    54   30   31 ar
    55   30   54 1
    56   31   32 ar
    57   31   55 1
    58   32   33 1
    59   35   36 1
    60   36   56 1
    61   36   57 1
    62   36   58 1
@<TRIPOS>MOLECULE
CHEMBL1097187
   59    63     0     0     0
SMALL
USER_CHARGES

@<TRIPOS>ATOM
      1 C1         -0.3843    2.9531    1.9073 C.3       1 <0>         0.0521
      2 N1          0.8623    2.3488    2.3838 N.pl3     1 <0>        -0.3901
      3 C2          2.0169    2.9971    2.6491 C.cat     1 <0>         0.2934
      4 N2          2.9023    2.1271    3.0517 N.pl3     1 <0>        -0.4733
      5 C3          2.3504    0.9046    3.0577 C.2       1 <0>         0.0153
      6 C4          1.0727    1.0224    2.6487 C.2       1 <0>         0.0248
      7 C5          0.0685   -0.0922    2.5067 C.3       1 <0>         0.2901
      8 C6         -0.2606   -0.2893    1.0494 C.ar      1 <0>        -0.1039
      9 C7          0.7540   -0.3291    0.1112 C.ar      1 <0>        -0.0942
     10 C8          0.4528   -0.5098   -1.2255 C.ar      1 <0>        -0.1060
     11 C9         -0.8643   -0.6509   -1.6247 C.ar      1 <0>        -0.0189
     12 C10        -1.8793   -0.6111   -0.6853 C.ar      1 <0>        -0.1053
     13 C11        -1.5765   -0.4359    0.6518 C.ar      1 <0>        -0.0710
     14 Cl1        -1.2434   -0.8774   -3.3036 Cl        1 <0>        -0.0470
     15 C12         0.6484   -1.3652    3.0674 C.ar      1 <0>        -0.1572
     16 C13         0.6257   -2.5255    2.3064 C.ar      1 <0>        -0.0320
     17 C14         1.1507   -3.7002    2.8004 C.ar      1 <0>        -0.1518
     18 C15         1.7093   -3.7249    4.0745 C.ar      1 <0>         0.2125
     19 C16         1.7296   -2.5468    4.8408 C.ar      1 <0>        -0.1086
     20 C17         1.1974   -1.3663    4.3192 C.ar      1 <0>        -0.0565
     21 C18         2.3233   -2.5847    6.1876 C.2       1 <0>         0.0302
     22 C19         2.8369   -3.7837    6.6404 C.2       1 <0>        -0.1636
     23 C20         2.7834   -4.9238    5.8206 C.2       1 <0>         0.5321
     24 O1          3.2412   -5.9748    6.2363 O.2       1 <0>        -0.5110
     25 N3          2.2423   -4.8879    4.5915 N.am      1 <0>        -0.5195
     26 C21         2.2156   -6.1098    3.7838 C.3       1 <0>         0.0561
     27 C22         2.3687   -1.3723    7.0316 C.ar      1 <0>        -0.1396
     28 C23         1.3151   -1.0835    7.9044 C.ar      1 <0>         0.1526
     29 C24         1.3655    0.0521    8.6906 C.ar      1 <0>        -0.1597
     30 C25         2.4541    0.9021    8.6154 C.ar      1 <0>        -0.0469
     31 C26         3.5002    0.6239    7.7543 C.ar      1 <0>        -0.1657
     32 C27         3.4681   -0.5108    6.9659 C.ar      1 <0>         0.1431
     33 F1          4.4937   -0.7840    6.1299 F         1 <0>        -0.1232
     34 F2          0.2506   -1.9121    7.9786 F         1 <0>        -0.1168
     35 O2         -1.1216    0.2448    3.2224 O.3       1 <0>        -0.3456
     36 C28        -0.9003    0.5768    4.5946 C.3       1 <0>         0.0120
     37 H1         -0.9938    3.2495    2.7610 H         1 <0>         0.1142
     38 H2         -0.1549    3.8305    1.3026 H         1 <0>         0.1186
     39 H3         -0.9317    2.2290    1.3039 H         1 <0>         0.1194
     40 H4          2.1805    4.0596    2.5449 H         1 <0>         0.2663
     41 H5          2.8430   -0.0127    3.3441 H         1 <0>         0.2221
     42 H6          1.7821   -0.2186    0.4229 H         1 <0>         0.1285
     43 H7          1.2455   -0.5405   -1.9584 H         1 <0>         0.1421
     44 H8         -2.9077   -0.7208   -0.9963 H         1 <0>         0.1450
     45 H9         -2.3683   -0.4095    1.3858 H         1 <0>         0.1494
     46 H10         0.1921   -2.5079    1.3174 H         1 <0>         0.1427
     47 H11         1.1282   -4.5983    2.2009 H         1 <0>         0.1496
     48 H12         1.2158   -0.4585    4.9039 H         1 <0>         0.1318
     49 H13         3.2796   -3.8452    7.6236 H         1 <0>         0.1628
     50 H14         3.1250   -6.1700    3.1857 H         1 <0>         0.0805
     51 H15         2.1544   -6.9779    4.4401 H         1 <0>         0.1003
     52 H16         1.3478   -6.0908    3.1245 H         1 <0>         0.0889
     53 H17         0.5525    0.2765    9.3652 H         1 <0>         0.1533
     54 H18         2.4873    1.7880    9.2322 H         1 <0>         0.1522
     55 H19         4.3465    1.2928    7.7013 H         1 <0>         0.1500
     56 H20        -0.5931   -0.3159    5.1394 H         1 <0>         0.0638
     57 H21        -0.1175    1.3321    4.6640 H         1 <0>         0.0370
     58 H22        -1.8215    0.9674    5.0270 H         1 <0>         0.1073
     59 H23         3.8156    2.3320    3.3061 H         1 <0>         0.4675
@<TRIPOS>BOND
     1    1    2 1
     2    1   37 1
     3    1   38 1
     4    1   39 1
     5    2    6 1
     6    2    3 1
     7    3    4 2
     8    3   40 1
     9    4    5 1
    10    4   59 1
    11    5    6 2
    12    5   41 1
    13    6    7 1
    14    7    8 1
    15    7   15 1
    16    7   35 1
    17    8   13 ar
    18    8    9 ar
    19    9   10 ar
    20    9   42 1
    21   10   11 ar
    22   10   43 1
    23   11   12 ar
    24   11   14 1
    25   12   13 ar
    26   12   44 1
    27   13   45 1
    28   15   20 ar
    29   15   16 ar
    30   16   17 ar
    31   16   46 1
    32   17   18 ar
    33   17   47 1
    34   18   25 1
    35   18   19 ar
    36   19   20 ar
    37   19   21 1
    38   20   48 1
    39   21   22 2
    40   21   27 1
    41   22   23 1
    42   22   49 1
    43   23   24 2
    44   23   25 am
    45   25   26 1
    46   26   50 1
    47   26   51 1
    48   26   52 1
    49   27   32 ar
    50   27   28 ar
    51   28   29 ar
    52   28   34 1
    53   29   30 ar
    54   29   53 1
    55   30   31 ar
    56   30   54 1
    57   31   32 ar
    58   31   55 1
    59   32   33 1
    60   35   36 1
    61   36   56 1
    62   36   57 1
    63   36   58 1
@<TRIPOS>MOLECULE
CHEMBL1097187
   58    62     0     0     0
SMALL
USER_CHARGES

@<TRIPOS>ATOM
      1 C1          3.0980   -1.0509    2.7073 C.3       1 <0>         0.0588
      2 N1          2.5108    0.2798    2.8825 N.pl3     1 <0>        -0.4464
      3 C2          3.1675    1.4050    3.2382 C.2       1 <0>         0.1910
      4 N2          2.3123    2.3892    3.2920 N.2       1 <0>        -0.4881
      5 C3          1.0915    1.9324    2.9759 C.2       1 <0>         0.0138
      6 C4          1.1951    0.6161    2.7105 C.2       1 <0>        -0.0248
      7 C5          0.0769   -0.3094    2.3054 C.3       1 <0>         0.2950
      8 C6          0.3688   -0.8838    0.9431 C.ar      1 <0>        -0.1115
      9 C7          1.0855   -2.0604    0.8285 C.ar      1 <0>        -0.1007
     10 C8          1.3536   -2.5877   -0.4206 C.ar      1 <0>        -0.1112
     11 C9          0.9045   -1.9378   -1.5564 C.ar      1 <0>        -0.0267
     12 C10         0.1873   -0.7603   -1.4411 C.ar      1 <0>        -0.1089
     13 C11        -0.0850   -0.2369   -0.1912 C.ar      1 <0>        -0.0778
     14 Cl1         1.2413   -2.5992   -3.1258 Cl        1 <0>        -0.0641
     15 C12        -0.0374   -1.4283    3.3085 C.ar      1 <0>        -0.1539
     16 C13        -0.7259   -2.5856    2.9731 C.ar      1 <0>        -0.0472
     17 C14        -0.8420   -3.6207    3.8757 C.ar      1 <0>        -0.1634
     18 C15        -0.2640   -3.5059    5.1360 C.ar      1 <0>         0.2020
     19 C16         0.4321   -2.3315    5.4704 C.ar      1 <0>        -0.1166
     20 C17         0.5427   -1.2973    4.5392 C.ar      1 <0>        -0.0242
     21 C18         1.0398   -2.2211    6.8070 C.2       1 <0>         0.0491
     22 C19         0.8976   -3.2831    7.6777 C.2       1 <0>        -0.1840
     23 C20         0.1880   -4.4281    7.2774 C.2       1 <0>         0.5359
     24 O1          0.0715   -5.3568    8.0591 O.2       1 <0>        -0.5270
     25 N3         -0.3653   -4.5282    6.0572 N.am      1 <0>        -0.5198
     26 C21        -1.0933   -5.7477    5.6978 C.3       1 <0>         0.0602
     27 C22         1.7821   -1.0068    7.2054 C.ar      1 <0>        -0.1414
     28 C23         1.1140    0.0539    7.8248 C.ar      1 <0>         0.1532
     29 C24         1.8156    1.1858    8.1948 C.ar      1 <0>        -0.1584
     30 C25         3.1749    1.2712    7.9535 C.ar      1 <0>        -0.0439
     31 C26         3.8432    0.2265    7.3408 C.ar      1 <0>        -0.1612
     32 C27         3.1574   -0.9149    6.9703 C.ar      1 <0>         0.1480
     33 F1          3.8130   -1.9366    6.3775 F         1 <0>        -0.1239
     34 F2         -0.2138   -0.0272    8.0606 F         1 <0>        -0.1207
     35 O2         -1.1519    0.4187    2.2620 O.3       1 <0>        -0.3508
     36 C28        -2.2991   -0.3922    2.0003 C.3       1 <0>         0.0198
     37 H1          3.3351   -1.2077    1.6551 H         1 <0>         0.0818
     38 H2          4.0094   -1.1268    3.3004 H         1 <0>         0.0920
     39 H3          2.3864   -1.8082    3.0362 H         1 <0>         0.0855
     40 H4          4.2251    1.4780    3.4445 H         1 <0>         0.2061
     41 H5          0.1850    2.5182    2.9370 H         1 <0>         0.1742
     42 H6          1.4363   -2.5674    1.7152 H         1 <0>         0.1328
     43 H7          1.9138   -3.5067   -0.5100 H         1 <0>         0.1363
     44 H8         -0.1632   -0.2524   -2.3274 H         1 <0>         0.1376
     45 H9         -0.6489    0.6797   -0.1008 H         1 <0>         0.1413
     46 H10        -1.1753   -2.6760    1.9952 H         1 <0>         0.1368
     47 H11        -1.3801   -4.5174    3.6058 H         1 <0>         0.1444
     48 H12         1.0810   -0.3957    4.7917 H         1 <0>         0.1366
     49 H13         1.3316   -3.2341    8.6655 H         1 <0>         0.1591
     50 H14        -0.4048   -6.4623    5.2468 H         1 <0>         0.0764
     51 H15        -1.5350   -6.1844    6.5935 H         1 <0>         0.0963
     52 H16        -1.8817   -5.5037    4.9858 H         1 <0>         0.0862
     53 H17         1.3010    2.0059    8.6733 H         1 <0>         0.1501
     54 H18         3.7173    2.1585    8.2447 H         1 <0>         0.1503
     55 H19         4.9045    0.3011    7.1556 H         1 <0>         0.1490
     56 H20        -2.4667   -1.0664    2.8402 H         1 <0>         0.0512
     57 H21        -3.1725    0.2462    1.8669 H         1 <0>         0.0964
     58 H22        -2.1331   -0.9748    1.0941 H         1 <0>         0.0495
@<TRIPOS>BOND
     1    1    2 1
     2    1   37 1
     3    1   38 1
     4    1   39 1
     5    2    6 1
     6    2    3 1
     7    3    4 2
     8    3   40 1
     9    4    5 1
    10    5    6 2
    11    5   41 1
    12    6    7 1
    13    7    8 1
    14    7   15 1
    15    7   35 1
    16    8   13 ar
    17    8    9 ar
    18    9   10 ar
    19    9   42 1
    20   10   11 ar
    21   10   43 1
    22   11   12 ar
    23   11   14 1
    24   12   13 ar
    25   12   44 1
    26   13   45 1
    27   15   20 ar
    28   15   16 ar
    29   16   17 ar
    30   16   46 1
    31   17   18 ar
    32   17   47 1
    33   18   25 1
    34   18   19 ar
    35   19   20 ar
    36   19   21 1
    37   20   48 1
    38   21   22 2
    39   21   27 1
    40   22   23 1
    41   22   49 1
    42   23   24 2
    43   23   25 am
    44   25   26 1
    45   26   50 1
    46   26   51 1
    47   26   52 1
    48   27   32 ar
    49   27   28 ar
    50   28   29 ar
    51   28   34 1
    52   29   30 ar
    53   29   53 1
    54   30   31 ar
    55   30   54 1
    56   31   32 ar
    57   31   55 1
    58   32   33 1
    59   35   36 1
    60   36   56 1
    61   36   57 1
    62   36   58 1
@<TRIPOS>MOLECULE
CHEMBL1098230
   39    40     0     0     0
SMALL
USER_CHARGES

@<TRIPOS>ATOM
      1 C1         -0.0187    1.5258    0.0104 C.3       1 <0>        -0.1402
      2 C2          0.0021   -0.0041    0.0020 C.3       1 <0>        -0.0325
      3 C3          0.7421   -0.5109    1.2415 C.3       1 <0>        -0.1401
      4 C4         -1.4333   -0.5336    0.0129 C.3       1 <0>        -0.1487
      5 C5          0.7074   -0.4901   -1.2379 C.ar      1 <0>        -0.0613
      6 C6          0.0342   -1.2846   -2.1479 C.ar      1 <0>        -0.0989
      7 C7          0.6774   -1.7322   -3.2848 C.ar      1 <0>        -0.0908
      8 C8          2.0028   -1.3829   -3.5143 C.ar      1 <0>        -0.0971
      9 C9          2.6760   -0.5839   -2.5979 C.ar      1 <0>        -0.1302
     10 C10         2.0248   -0.1358   -1.4657 C.ar      1 <0>        -0.0969
     11 S1          2.8279   -1.9521   -4.9634 S.3       1 <0>        -0.0952
     12 C11         4.4959   -1.2532   -4.8218 C.3       1 <0>        -0.1210
     13 C12         5.3302   -1.6756   -6.0328 C.3       1 <0>        -0.0461
     14 C13         6.7159   -1.0950   -5.9151 C.2       1 <0>         0.0352
     15 C14         7.0920    0.1396   -6.2998 C.2       1 <0>         0.0397
     16 N1          8.4257    0.2544   -6.0139 N.pl3     1 <0>        -0.5089
     17 H1          8.9843    1.0307   -6.1760 H         1 <0>         0.4688
     18 C15         8.8185   -0.9148   -5.4642 C.cat     1 <0>         0.3091
     19 N2          7.7896   -1.7153   -5.4036 N.pl3     1 <0>        -0.4741
     20 H2          1.0039    1.9031    0.0027 H         1 <0>         0.0555
     21 H3         -0.5459    1.8868   -0.8726 H         1 <0>         0.0578
     22 H4         -0.5289    1.8773    0.9072 H         1 <0>         0.0634
     23 H5          0.2319   -0.1594    2.1383 H         1 <0>         0.0634
     24 H6          0.7568   -1.6008    1.2356 H         1 <0>         0.0575
     25 H7          1.7647   -0.1336    1.2338 H         1 <0>         0.0553
     26 H8         -1.9605   -0.1726   -0.8702 H         1 <0>         0.0606
     27 H9         -1.4185   -1.6235    0.0069 H         1 <0>         0.0604
     28 H10        -1.9435   -0.1821    0.9097 H         1 <0>         0.0634
     29 H11        -0.9958   -1.5557   -1.9689 H         1 <0>         0.1372
     30 H12         0.1512   -2.3532   -3.9947 H         1 <0>         0.1302
     31 H13         3.7060   -0.3105   -2.7730 H         1 <0>         0.1162
     32 H14         2.5460    0.4885   -0.7551 H         1 <0>         0.1258
     33 H15         4.4323   -0.1657   -4.7859 H         1 <0>         0.0977
     34 H16         4.9673   -1.6200   -3.9100 H         1 <0>         0.0908
     35 H17         5.3938   -2.7631   -6.0687 H         1 <0>         0.1080
     36 H18         4.8589   -1.3088   -6.9446 H         1 <0>         0.1242
     37 H19         6.4624    0.8940   -6.7480 H         1 <0>         0.2283
     38 H20         9.8177   -1.1475   -5.1267 H         1 <0>         0.2678
     39 H21         7.8000   -2.6172   -5.0468 H         1 <0>         0.4658
@<TRIPOS>BOND
     1    1    2 1
     2    1   20 1
     3    1   21 1
     4    1   22 1
     5    2    3 1
     6    2    4 1
     7    2    5 1
     8    3   23 1
     9    3   24 1
    10    3   25 1
    11    4   26 1
    12    4   27 1
    13    4   28 1
    14    5   10 ar
    15    5    6 ar
    16    6    7 ar
    17    6   29 1
    18    7    8 ar
    19    7   30 1
    20    8    9 ar
    21    8   11 1
    22    9   10 ar
    23    9   31 1
    24   10   32 1
    25   11   12 1
    26   12   13 1
    27   12   33 1
    28   12   34 1
    29   13   14 1
    30   13   35 1
    31   13   36 1
    32   14   19 1
    33   14   15 2
    34   15   16 1
    35   15   37 1
    36   16   17 1
    37   16   18 1
    38   18   19 2
    39   18   38 1
    40   19   39 1
@<TRIPOS>MOLECULE
CHEMBL1098230
   38    39     0     0     0
SMALL
USER_CHARGES

@<TRIPOS>ATOM
      1 C1         -0.0187    1.5258    0.0104 C.3       1 <0>        -0.1395
      2 C2          0.0021   -0.0041    0.0020 C.3       1 <0>        -0.0296
      3 C3          0.7421   -0.5109    1.2415 C.3       1 <0>        -0.1393
      4 C4         -1.4333   -0.5336    0.0129 C.3       1 <0>        -0.1458
      5 C5          0.7074   -0.4901   -1.2379 C.ar      1 <0>        -0.0743
      6 C6          0.0342   -1.2846   -2.1479 C.ar      1 <0>        -0.1029
      7 C7          0.6774   -1.7322   -3.2848 C.ar      1 <0>        -0.0979
      8 C8          2.0028   -1.3829   -3.5143 C.ar      1 <0>        -0.0833
      9 C9          2.6760   -0.5839   -2.5979 C.ar      1 <0>        -0.1292
     10 C10         2.0248   -0.1358   -1.4657 C.ar      1 <0>        -0.0959
     11 S1          2.8279   -1.9521   -4.9634 S.3       1 <0>        -0.1259
     12 C11         4.4959   -1.2532   -4.8218 C.3       1 <0>        -0.0934
     13 C12         5.3302   -1.6756   -6.0328 C.3       1 <0>        -0.0158
     14 C13         6.7159   -1.0950   -5.9151 C.2       1 <0>         0.0028
     15 C14         7.8704   -1.7869   -5.9614 C.2       1 <0>        -0.0471
     16 N1          8.8832   -0.8775   -5.8168 N.pl3     1 <0>        -0.5699
     17 H1          9.8337   -1.0710   -5.8089 H         1 <0>         0.4223
     18 C15         8.3120    0.3393   -5.6870 C.2       1 <0>         0.1879
     19 N2          7.0158    0.2021   -5.7518 N.2       1 <0>        -0.4888
     20 H2          1.0039    1.9031    0.0027 H         1 <0>         0.0565
     21 H3         -0.5459    1.8868   -0.8726 H         1 <0>         0.0570
     22 H4         -0.5289    1.8773    0.9072 H         1 <0>         0.0594
     23 H5          0.2319   -0.1594    2.1383 H         1 <0>         0.0594
     24 H6          0.7568   -1.6008    1.2356 H         1 <0>         0.0566
     25 H7          1.7647   -0.1336    1.2338 H         1 <0>         0.0563
     26 H8         -1.9605   -0.1726   -0.8702 H         1 <0>         0.0594
     27 H9         -1.4185   -1.6235    0.0069 H         1 <0>         0.0592
     28 H10        -1.9435   -0.1821    0.9097 H         1 <0>         0.0593
     29 H11        -0.9958   -1.5557   -1.9689 H         1 <0>         0.1317
     30 H12         0.1512   -2.3532   -3.9947 H         1 <0>         0.1270
     31 H13         3.7060   -0.3105   -2.7730 H         1 <0>         0.1224
     32 H14         2.5460    0.4885   -0.7551 H         1 <0>         0.1232
     33 H15         4.4323   -0.1657   -4.7859 H         1 <0>         0.0955
     34 H16         4.9673   -1.6200   -3.9100 H         1 <0>         0.0844
     35 H17         5.3938   -2.7631   -6.0687 H         1 <0>         0.0853
     36 H18         4.8589   -1.3088   -6.9446 H         1 <0>         0.0857
     37 H19         7.9767   -2.8542   -6.0881 H         1 <0>         0.1780
     38 H20         8.8404    1.2719   -5.5555 H         1 <0>         0.2091
@<TRIPOS>BOND
     1    1    2 1
     2    1   20 1
     3    1   21 1
     4    1   22 1
     5    2    3 1
     6    2    4 1
     7    2    5 1
     8    3   23 1
     9    3   24 1
    10    3   25 1
    11    4   26 1
    12    4   27 1
    13    4   28 1
    14    5   10 ar
    15    5    6 ar
    16    6    7 ar
    17    6   29 1
    18    7    8 ar
    19    7   30 1
    20    8    9 ar
    21    8   11 1
    22    9   10 ar
    23    9   31 1
    24   10   32 1
    25   11   12 1
    26   12   13 1
    27   12   33 1
    28   12   34 1
    29   13   14 1
    30   13   35 1
    31   13   36 1
    32   14   19 1
    33   14   15 2
    34   15   16 1
    35   15   37 1
    36   16   17 1
    37   16   18 1
    38   18   19 2
    39   18   38 1
@<TRIPOS>MOLECULE
CHEMBL1098230
   38    39     0     0     0
SMALL
USER_CHARGES

@<TRIPOS>ATOM
      1 C1         -0.0187    1.5258    0.0104 C.3       1 <0>        -0.1396
      2 C2          0.0021   -0.0041    0.0020 C.3       1 <0>        -0.0301
      3 C3          0.7421   -0.5109    1.2415 C.3       1 <0>        -0.1397
      4 C4         -1.4333   -0.5336    0.0129 C.3       1 <0>        -0.1462
      5 C5          0.7074   -0.4901   -1.2379 C.ar      1 <0>        -0.0715
      6 C6          0.0342   -1.2846   -2.1479 C.ar      1 <0>        -0.1022
      7 C7          0.6774   -1.7322   -3.2848 C.ar      1 <0>        -0.0963
      8 C8          2.0028   -1.3829   -3.5143 C.ar      1 <0>        -0.0869
      9 C9          2.6760   -0.5839   -2.5979 C.ar      1 <0>        -0.1297
     10 C10         2.0248   -0.1358   -1.4657 C.ar      1 <0>        -0.0958
     11 S1          2.8279   -1.9521   -4.9634 S.3       1 <0>        -0.1171
     12 C11         4.4959   -1.2532   -4.8218 C.3       1 <0>        -0.1028
     13 C12         5.3302   -1.6756   -6.0328 C.3       1 <0>        -0.0255
     14 C13         6.7159   -1.0950   -5.9151 C.2       1 <0>        -0.0260
     15 C14         7.7541   -1.6256   -5.2411 C.2       1 <0>        -0.0143
     16 N1          8.8049   -0.8044   -5.3840 N.2       1 <0>        -0.4931
     17 H1          6.6458    0.6791   -7.0277 H         1 <0>         0.4201
     18 C15         8.4574    0.2149   -6.1210 C.2       1 <0>         0.1891
     19 N2          7.1630    0.0700   -6.4777 N.pl3     1 <0>        -0.5667
     20 H2          1.0039    1.9031    0.0027 H         1 <0>         0.0563
     21 H3         -0.5459    1.8868   -0.8726 H         1 <0>         0.0567
     22 H4         -0.5289    1.8773    0.9072 H         1 <0>         0.0603
     23 H5          0.2319   -0.1594    2.1383 H         1 <0>         0.0602
     24 H6          0.7568   -1.6008    1.2356 H         1 <0>         0.0572
     25 H7          1.7647   -0.1336    1.2338 H         1 <0>         0.0565
     26 H8         -1.9605   -0.1726   -0.8702 H         1 <0>         0.0593
     27 H9         -1.4185   -1.6235    0.0069 H         1 <0>         0.0596
     28 H10        -1.9435   -0.1821    0.9097 H         1 <0>         0.0601
     29 H11        -0.9958   -1.5557   -1.9689 H         1 <0>         0.1329
     30 H12         0.1512   -2.3532   -3.9947 H         1 <0>         0.1277
     31 H13         3.7060   -0.3105   -2.7730 H         1 <0>         0.1210
     32 H14         2.5460    0.4885   -0.7551 H         1 <0>         0.1241
     33 H15         4.4323   -0.1657   -4.7859 H         1 <0>         0.0855
     34 H16         4.9673   -1.6200   -3.9100 H         1 <0>         0.0941
     35 H17         5.3938   -2.7631   -6.0687 H         1 <0>         0.1003
     36 H18         4.8589   -1.3088   -6.9446 H         1 <0>         0.0820
     37 H19         7.7425   -2.5503   -4.6833 H         1 <0>         0.1705
     38 H20         9.0995    1.0366   -6.4020 H         1 <0>         0.2099
@<TRIPOS>BOND
     1    1    2 1
     2    1   20 1
     3    1   21 1
     4    1   22 1
     5    2    3 1
     6    2    4 1
     7    2    5 1
     8    3   23 1
     9    3   24 1
    10    3   25 1
    11    4   26 1
    12    4   27 1
    13    4   28 1
    14    5   10 ar
    15    5    6 ar
    16    6    7 ar
    17    6   29 1
    18    7    8 ar
    19    7   30 1
    20    8    9 ar
    21    8   11 1
    22    9   10 ar
    23    9   31 1
    24   10   32 1
    25   11   12 1
    26   12   13 1
    27   12   33 1
    28   12   34 1
    29   13   35 1
    30   13   36 1
    31   13   14 1
    32   14   15 2
    33   14   19 1
    34   15   16 1
    35   15   37 1
    36   16   18 2
    37   17   19 1
    38   18   38 1
    39   18   19 1
@<TRIPOS>MOLECULE
CHEMBL402813
   70    73     0     0     0
SMALL
USER_CHARGES

@<TRIPOS>ATOM
      1 C1         -2.5894    0.6382    1.1676 C.3       1 <0>         0.0324
      2 O1         -2.2138   -0.7263    0.9701 O.3       1 <0>        -0.3786
      3 C2         -1.2912   -0.9257   -0.1028 C.3       1 <0>         0.0378
      4 C3         -0.9615   -2.4150   -0.2218 C.3       1 <0>         0.1301
      5 N1         -2.1675   -3.1529   -0.6056 N.pl3     1 <0>        -0.5945
      6 C4         -2.4801   -3.3597   -2.0219 C.3       1 <0>         0.1044
      7 C5         -1.8491   -4.6446   -2.4931 C.2       1 <0>         0.4878
      8 O2         -1.2019   -5.3209   -1.7219 O.2       1 <0>        -0.4711
      9 N2         -2.0038   -5.0420   -3.7716 N.am      1 <0>        -0.6106
     10 C6         -2.8851   -4.3012   -4.6844 C.3       1 <0>         0.1068
     11 C7         -3.8873   -5.2798   -5.3047 C.3       1 <0>        -0.1361
     12 C8         -3.1271   -6.4333   -5.9631 C.3       1 <0>        -0.1096
     13 C9         -2.3141   -7.1812   -4.9040 C.3       1 <0>        -0.0571
     14 C10        -1.2897   -6.2208   -4.2807 C.3       1 <0>         0.1658
     15 C11        -0.5646   -6.9186   -3.1282 C.3       1 <0>         0.0700
     16 N3          0.5487   -6.0773   -2.6692 N.3       1 <0>        -0.4965
     17 C12         1.5842   -5.9618   -3.7063 C.3       1 <0>         0.0059
     18 C13         2.6940   -5.0310   -3.2104 C.3       1 <0>         0.0695
     19 O3          3.2160   -5.5344   -1.9777 O.3       1 <0>        -0.3878
     20 C14         2.2345   -5.6591   -0.9450 C.3       1 <0>         0.0682
     21 C15         1.1201   -6.5962   -1.4180 C.3       1 <0>         0.0364
     22 C16        -1.5914   -8.3364   -5.5476 C.ar      1 <0>        -0.0750
     23 C17        -0.6784   -8.1033   -6.5591 C.ar      1 <0>        -0.1150
     24 C18        -0.0155   -9.1629   -7.1495 C.ar      1 <0>        -0.1165
     25 C19        -0.2652  -10.4556   -6.7281 C.ar      1 <0>        -0.1217
     26 C20        -1.1775  -10.6886   -5.7160 C.ar      1 <0>        -0.1161
     27 C21        -1.8372   -9.6286   -5.1227 C.ar      1 <0>        -0.1137
     28 C22        -3.0197   -3.6595    0.3792 C.ar      1 <0>         0.2512
     29 C23        -4.1606   -4.3644    0.0167 C.ar      1 <0>        -0.1821
     30 C24        -5.0014   -4.8641    0.9915 C.ar      1 <0>        -0.0535
     31 C25        -4.7091   -4.6632    2.3290 C.ar      1 <0>        -0.0895
     32 C26        -3.5729   -3.9607    2.6939 C.ar      1 <0>         0.0170
     33 C27        -2.7245   -3.4641    1.7219 C.ar      1 <0>        -0.1509
     34 Cl1        -3.2100   -3.7097    4.3728 Cl        1 <0>        -0.0533
     35 Cl2        -5.7688   -5.2925    3.5516 Cl        1 <0>        -0.0632
     36 H1         -1.7023    1.2304    1.3921 H         1 <0>         0.0400
     37 H2         -3.0615    1.0199    0.2623 H         1 <0>         0.0385
     38 H3         -3.2910    0.7052    1.9992 H         1 <0>         0.0859
     39 H4         -1.7363   -0.5765   -1.0345 H         1 <0>         0.0497
     40 H5         -0.3771   -0.3659    0.0953 H         1 <0>         0.0583
     41 H6         -0.1917   -2.5572   -0.9803 H         1 <0>         0.0931
     42 H7         -0.5992   -2.7847    0.7374 H         1 <0>         0.0869
     43 H8         -3.5609   -3.4171   -2.1508 H         1 <0>         0.1003
     44 H9         -2.0883   -2.5269   -2.6058 H         1 <0>         0.0997
     45 H10        -3.4216   -3.5313   -4.1298 H         1 <0>         0.0826
     46 H11        -2.2901   -3.8393   -5.4722 H         1 <0>         0.0689
     47 H12        -4.5416   -5.6726   -4.5263 H         1 <0>         0.0694
     48 H13        -4.4844   -4.7620   -6.0554 H         1 <0>         0.0791
     49 H14        -3.8370   -7.1184   -6.4266 H         1 <0>         0.0701
     50 H15        -2.4549   -6.0375   -6.7244 H         1 <0>         0.0667
     51 H16        -2.9831   -7.5561   -4.1294 H         1 <0>         0.0832
     52 H17        -0.5672   -5.9123   -5.0363 H         1 <0>         0.0724
     53 H18        -1.2611   -7.0802   -2.3055 H         1 <0>         0.0989
     54 H19        -0.1776   -7.8784   -3.4705 H         1 <0>         0.0276
     55 H20         2.0016   -6.9468   -3.9152 H         1 <0>         0.0363
     56 H21         1.1446   -5.5518   -4.6156 H         1 <0>         0.0772
     57 H22         3.4912   -4.9875   -3.9525 H         1 <0>         0.0918
     58 H23         2.2877   -4.0320   -3.0526 H         1 <0>         0.0531
     59 H24         2.6994   -6.0697   -0.0487 H         1 <0>         0.0924
     60 H25         1.8149   -4.6783   -0.7214 H         1 <0>         0.0561
     61 H26         0.3417   -6.6493   -0.6569 H         1 <0>         0.0917
     62 H27         1.5301   -7.5914   -1.5903 H         1 <0>         0.0289
     63 H28        -0.4833   -7.0934   -6.8883 H         1 <0>         0.1180
     64 H29         0.6972   -8.9809   -7.9402 H         1 <0>         0.1214
     65 H30         0.2522  -11.2835   -7.1899 H         1 <0>         0.1212
     66 H31        -1.3728  -11.6985   -5.3870 H         1 <0>         0.1220
     67 H32        -2.5472   -9.8103   -4.3294 H         1 <0>         0.1201
     68 H33        -4.3900   -4.5211   -1.0270 H         1 <0>         0.1272
     69 H34        -5.8884   -5.4121    0.7096 H         1 <0>         0.1369
     70 H35        -1.8358   -2.9204    2.0065 H         1 <0>         0.1437
@<TRIPOS>BOND
     1    1    2 1
     2    1   36 1
     3    1   37 1
     4    1   38 1
     5    2    3 1
     6    3    4 1
     7    3   39 1
     8    3   40 1
     9    4    5 1
    10    4   41 1
    11    4   42 1
    12    5    6 1
    13    5   28 1
    14    6    7 1
    15    6   43 1
    16    6   44 1
    17    7    8 2
    18    7    9 am
    19    9   14 1
    20    9   10 1
    21   10   11 1
    22   10   45 1
    23   10   46 1
    24   11   12 1
    25   11   47 1
    26   11   48 1
    27   12   13 1
    28   12   49 1
    29   12   50 1
    30   13   14 1
    31   13   22 1
    32   13   51 1
    33   14   15 1
    34   14   52 1
    35   15   16 1
    36   15   53 1
    37   15   54 1
    38   16   21 1
    39   16   17 1
    40   17   18 1
    41   17   55 1
    42   17   56 1
    43   18   19 1
    44   18   57 1
    45   18   58 1
    46   19   20 1
    47   20   21 1
    48   20   59 1
    49   20   60 1
    50   21   61 1
    51   21   62 1
    52   22   27 ar
    53   22   23 ar
    54   23   24 ar
    55   23   63 1
    56   24   25 ar
    57   24   64 1
    58   25   26 ar
    59   25   65 1
    60   26   27 ar
    61   26   66 1
    62   27   67 1
    63   28   33 ar
    64   28   29 ar
    65   29   30 ar
    66   29   68 1
    67   30   31 ar
    68   30   69 1
    69   31   32 ar
    70   31   35 1
    71   32   33 ar
    72   32   34 1
    73   33   70 1
@<TRIPOS>MOLECULE
CHEMBL402813
   71    74     0     0     0
SMALL
USER_CHARGES

@<TRIPOS>ATOM
      1 C1         -3.0965   -0.2506    2.2380 C.3       1 <0>         0.0313
      2 O1         -2.6034   -1.5317    1.8408 O.3       1 <0>        -0.3791
      3 C2         -1.7143   -1.4911    0.7228 C.3       1 <0>         0.0350
      4 C3         -1.2517   -2.9104    0.3873 C.3       1 <0>         0.1275
      5 N1         -2.3987   -3.7054   -0.0583 N.pl3     1 <0>        -0.6025
      6 C4         -2.7527   -3.7481   -1.4792 C.3       1 <0>         0.1030
      7 C5         -2.0251   -4.8881   -2.1441 C.2       1 <0>         0.5007
      8 O2         -1.2839   -5.5953   -1.4949 O.2       1 <0>        -0.5563
      9 N2         -2.1981   -5.1218   -3.4601 N.am      1 <0>        -0.6052
     10 C6         -3.1832   -4.3538   -4.2336 C.3       1 <0>         0.0990
     11 C7         -4.1166   -5.3324   -4.9532 C.3       1 <0>        -0.1405
     12 C8         -3.2824   -6.3062   -5.7886 C.3       1 <0>        -0.1144
     13 C9         -2.3581   -7.1077   -4.8691 C.3       1 <0>        -0.0448
     14 C10        -1.4008   -6.1452   -4.1498 C.3       1 <0>         0.1273
     15 C11        -0.5646   -6.9186   -3.1282 C.3       1 <0>        -0.0078
     16 N3          0.5487   -6.0773   -2.6692 N.4       1 <0>        -0.3661
     17 C12         1.4883   -5.8602   -3.7779 C.3       1 <0>        -0.0578
     18 C13         2.6471   -4.9833   -3.2971 C.3       1 <0>         0.0412
     19 O3          3.2854   -5.6142   -2.1834 O.3       1 <0>        -0.3567
     20 C14         2.4044   -5.8687   -1.0857 C.3       1 <0>         0.0394
     21 C15         1.2451   -6.7473   -1.5623 C.3       1 <0>        -0.0309
     22 C16        -1.5604   -8.0888   -5.6889 C.ar      1 <0>        -0.1006
     23 C17        -0.7179   -7.6327   -6.6855 C.ar      1 <0>        -0.1205
     24 C18         0.0138   -8.5326   -7.4375 C.ar      1 <0>        -0.1129
     25 C19        -0.0965   -9.8886   -7.1926 C.ar      1 <0>        -0.1097
     26 C20        -0.9383  -10.3447   -6.1954 C.ar      1 <0>        -0.1103
     27 C21        -1.6668   -9.4445   -5.4405 C.ar      1 <0>        -0.1116
     28 C22        -3.1552   -4.4229    0.8721 C.ar      1 <0>         0.2353
     29 C23        -4.2398   -5.1817    0.4501 C.ar      1 <0>        -0.1808
     30 C24        -4.9861   -5.8900    1.3712 C.ar      1 <0>        -0.0541
     31 C25        -4.6552   -5.8445    2.7140 C.ar      1 <0>        -0.0799
     32 C26        -3.5751   -5.0888    3.1381 C.ar      1 <0>         0.0143
     33 C27        -2.8208   -4.3832    2.2192 C.ar      1 <0>        -0.1444
     34 Cl1        -3.1636   -5.0331    4.8237 Cl        1 <0>        -0.0412
     35 Cl2        -5.5960   -6.7358    3.8690 Cl        1 <0>        -0.0496
     36 H1         -2.2599    0.3907    2.5155 H         1 <0>         0.0436
     37 H2         -3.6418    0.2016    1.4097 H         1 <0>         0.0411
     38 H3         -3.7638   -0.3670    3.0920 H         1 <0>         0.0900
     39 H4         -2.2310   -1.0646   -0.1370 H         1 <0>         0.0508
     40 H5         -0.8490   -0.8756    0.9688 H         1 <0>         0.0616
     41 H6         -0.5062   -2.8714   -0.4069 H         1 <0>         0.0832
     42 H7         -0.8142   -3.3691    1.2741 H         1 <0>         0.0928
     43 H8         -3.8280   -3.8944   -1.5816 H         1 <0>         0.1191
     44 H9         -2.4670   -2.8090   -1.9532 H         1 <0>         0.1168
     45 H10        -3.7639   -3.7223   -3.5612 H         1 <0>         0.0984
     46 H11        -2.6684   -3.7334   -4.9673 H         1 <0>         0.0871
     47 H12        -4.6971   -5.8891   -4.2175 H         1 <0>         0.0766
     48 H13        -4.7912   -4.7785   -5.6060 H         1 <0>         0.0940
     49 H14        -3.9454   -6.9882   -6.3210 H         1 <0>         0.0848
     50 H15        -2.6835   -5.7470   -6.5075 H         1 <0>         0.0737
     51 H16        -2.9551   -7.6477   -4.1342 H         1 <0>         0.0956
     52 H17        -0.7436   -5.6680   -4.8767 H         1 <0>         0.0986
     53 H18        -1.1899   -7.1898   -2.2776 H         1 <0>         0.1638
     54 H19        -0.1697   -7.8227   -3.5917 H         1 <0>         0.1266
     55 H20         1.8760   -6.8201   -4.1191 H         1 <0>         0.1368
     56 H21         0.9726   -5.3631   -4.5995 H         1 <0>         0.1313
     57 H22         3.3672   -4.8564   -4.1055 H         1 <0>         0.1393
     58 H23         2.2645   -4.0089   -2.9934 H         1 <0>         0.0739
     59 H24         2.9489   -6.3826   -0.2936 H         1 <0>         0.1398
     60 H25         2.0135   -4.9246   -0.7063 H         1 <0>         0.0760
     61 H26         0.5490   -6.9087   -0.7393 H         1 <0>         0.1459
     62 H27         1.6329   -7.7068   -1.9045 H         1 <0>         0.1294
     63 H28        -0.6318   -6.5732   -6.8768 H         1 <0>         0.1191
     64 H29         0.6714   -8.1763   -8.2166 H         1 <0>         0.1271
     65 H30         0.4747  -10.5917   -7.7806 H         1 <0>         0.1280
     66 H31        -1.0247  -11.4041   -6.0043 H         1 <0>         0.1285
     67 H32        -2.3216   -9.8005   -4.6590 H         1 <0>         0.1244
     68 H33        -4.4993   -5.2173   -0.5976 H         1 <0>         0.1250
     69 H34        -5.8292   -6.4799    1.0431 H         1 <0>         0.1408
     70 H35        -1.9755   -3.7977    2.5494 H         1 <0>         0.1455
     71 H36         0.1906   -5.1887   -2.3526 H         1 <0>         0.4150
@<TRIPOS>BOND
     1    1    2 1
     2    1   36 1
     3    1   37 1
     4    1   38 1
     5    2    3 1
     6    3    4 1
     7    3   39 1
     8    3   40 1
     9    4    5 1
    10    4   41 1
    11    4   42 1
    12    5    6 1
    13    5   28 1
    14    6    7 1
    15    6   43 1
    16    6   44 1
    17    7    8 2
    18    7    9 am
    19    9   14 1
    20    9   10 1
    21   10   11 1
    22   10   45 1
    23   10   46 1
    24   11   12 1
    25   11   47 1
    26   11   48 1
    27   12   13 1
    28   12   49 1
    29   12   50 1
    30   13   14 1
    31   13   22 1
    32   13   51 1
    33   14   15 1
    34   14   52 1
    35   15   16 1
    36   15   53 1
    37   15   54 1
    38   16   21 1
    39   16   17 1
    40   16   71 1
    41   17   18 1
    42   17   55 1
    43   17   56 1
    44   18   19 1
    45   18   57 1
    46   18   58 1
    47   19   20 1
    48   20   21 1
    49   20   59 1
    50   20   60 1
    51   21   61 1
    52   21   62 1
    53   22   27 ar
    54   22   23 ar
    55   23   24 ar
    56   23   63 1
    57   24   25 ar
    58   24   64 1
    59   25   26 ar
    60   25   65 1
    61   26   27 ar
    62   26   66 1
    63   27   67 1
    64   28   33 ar
    65   28   29 ar
    66   29   30 ar
    67   29   68 1
    68   30   31 ar
    69   30   69 1
    70   31   32 ar
    71   31   35 1
    72   32   33 ar
    73   32   34 1
    74   33   70 1
@<TRIPOS>MOLECULE
CHEMBL402813
   70    73     0     0     0
SMALL
USER_CHARGES

@<TRIPOS>ATOM
      1 C1          0.2752   -0.2370    1.8138 C.3       1 <0>         0.0322
      2 O1          0.2022   -1.6361    1.5322 O.3       1 <0>        -0.3784
      3 C2          0.8990   -2.0277    0.3476 C.3       1 <0>         0.0379
      4 C3          0.7539   -3.5374    0.1460 C.3       1 <0>         0.1262
      5 N1         -0.6520   -3.8636   -0.1055 N.pl3     1 <0>        -0.5970
      6 C4         -1.1665   -3.8785   -1.4771 C.3       1 <0>         0.1021
      7 C5         -1.0037   -5.2587   -2.0597 C.2       1 <0>         0.4916
      8 O2         -0.5069   -6.1429   -1.3947 O.2       1 <0>        -0.5033
      9 N2         -1.4102   -5.5106   -3.3198 N.am      1 <0>        -0.6070
     10 C6         -2.0082   -4.4482   -4.1399 C.3       1 <0>         0.0965
     11 C7         -3.3616   -4.9351   -4.6671 C.3       1 <0>        -0.1345
     12 C8         -3.1703   -6.2639   -5.4018 C.3       1 <0>        -0.1157
     13 C9         -2.6250   -7.3125   -4.4296 C.3       1 <0>        -0.0542
     14 C10        -1.2581   -6.8511   -3.9016 C.3       1 <0>         0.1616
     15 C11        -0.2505   -6.7998   -5.0518 C.3       1 <0>         0.0410
     16 N3          1.0543   -6.3594   -4.5404 N.3       1 <0>        -0.5256
     17 C12         1.0727   -4.9050   -4.3265 C.3       1 <0>         0.0041
     18 C13         2.4265   -4.4981   -3.7386 C.3       1 <0>         0.0622
     19 O3          3.4705   -4.9296   -4.6157 O.3       1 <0>        -0.3844
     20 C14         3.4825   -6.3411   -4.8457 C.3       1 <0>         0.0640
     21 C15         2.1394   -6.7667   -5.4448 C.3       1 <0>         0.0183
     22 C16        -2.4675   -8.6289   -5.1460 C.ar      1 <0>        -0.0776
     23 C17        -1.9489   -8.6610   -6.4269 C.ar      1 <0>        -0.1175
     24 C18        -1.8044   -9.8685   -7.0841 C.ar      1 <0>        -0.1191
     25 C19        -2.1780  -11.0441   -6.4601 C.ar      1 <0>        -0.1197
     26 C20        -2.6957  -11.0121   -5.1787 C.ar      1 <0>        -0.1155
     27 C21        -2.8363   -9.8050   -4.5200 C.ar      1 <0>        -0.1106
     28 C22        -1.5024   -4.1605    0.9629 C.ar      1 <0>         0.2478
     29 C23        -2.8344   -4.4755    0.7252 C.ar      1 <0>        -0.1815
     30 C24        -3.6731   -4.7686    1.7825 C.ar      1 <0>        -0.0533
     31 C25        -3.1883   -4.7484    3.0784 C.ar      1 <0>        -0.0873
     32 C26        -1.8612   -4.4344    3.3189 C.ar      1 <0>         0.0166
     33 C27        -1.0160   -4.1467    2.2634 C.ar      1 <0>        -0.1488
     34 Cl1        -1.2569   -4.4089    4.9461 Cl        1 <0>        -0.0517
     35 Cl2        -4.2457   -5.1169    4.4050 Cl        1 <0>        -0.0616
     36 H1          1.3177    0.0537    1.9429 H         1 <0>         0.0406
     37 H2         -0.1584    0.3234    0.9855 H         1 <0>         0.0388
     38 H3         -0.2781   -0.0210    2.7278 H         1 <0>         0.0863
     39 H4          0.4783   -1.5044   -0.5111 H         1 <0>         0.0505
     40 H5          1.9544   -1.7741    0.4463 H         1 <0>         0.0604
     41 H6          1.3574   -3.8498   -0.7061 H         1 <0>         0.0917
     42 H7          1.0929   -4.0578    1.0418 H         1 <0>         0.0900
     43 H8         -2.2225   -3.6084   -1.4721 H         1 <0>         0.1076
     44 H9         -0.6109   -3.1612   -2.0813 H         1 <0>         0.1031
     45 H10        -2.1527   -3.5550   -3.5321 H         1 <0>         0.0855
     46 H11        -1.3502   -4.2197   -4.9783 H         1 <0>         0.0712
     47 H12        -4.0477   -5.0767   -3.8320 H         1 <0>         0.0717
     48 H13        -3.7719   -4.1952   -5.3543 H         1 <0>         0.0802
     49 H14        -4.1279   -6.6003   -5.7992 H         1 <0>         0.0721
     50 H15        -2.4650   -6.1273   -6.2216 H         1 <0>         0.0681
     51 H16        -3.3181   -7.4317   -3.5967 H         1 <0>         0.0870
     52 H17        -0.9076   -7.5439   -3.1366 H         1 <0>         0.1099
     53 H18        -0.1518   -7.7917   -5.4929 H         1 <0>         0.0938
     54 H19        -0.5994   -6.0983   -5.8095 H         1 <0>         0.0425
     55 H20         0.9210   -4.3952   -5.2779 H         1 <0>         0.0375
     56 H21         0.2774   -4.6289   -3.6341 H         1 <0>         0.0981
     57 H22         2.4658   -3.4141   -3.6316 H         1 <0>         0.0932
     58 H23         2.5548   -4.9658   -2.7624 H         1 <0>         0.0580
     59 H24         4.2857   -6.5900   -5.5394 H         1 <0>         0.0983
     60 H25         3.6415   -6.8623   -3.9017 H         1 <0>         0.0604
     61 H26         2.1229   -7.8495   -5.5687 H         1 <0>         0.0861
     62 H27         2.0048   -6.2866   -6.4141 H         1 <0>         0.0412
     63 H28        -1.6570   -7.7426   -6.9145 H         1 <0>         0.1206
     64 H29        -1.3999   -9.8935   -8.0852 H         1 <0>         0.1214
     65 H30        -2.0658  -11.9874   -6.9738 H         1 <0>         0.1216
     66 H31        -2.9879  -11.9305   -4.6913 H         1 <0>         0.1228
     67 H32        -3.2373   -9.7803   -3.5175 H         1 <0>         0.1216
     68 H33        -3.2139   -4.4909   -0.2858 H         1 <0>         0.1273
     69 H34        -4.7086   -5.0136    1.5977 H         1 <0>         0.1383
     70 H35         0.0202   -3.9065    2.4506 H         1 <0>         0.1449
@<TRIPOS>BOND
     1    1    2 1
     2    1   36 1
     3    1   37 1
     4    1   38 1
     5    2    3 1
     6    3    4 1
     7    3   39 1
     8    3   40 1
     9    4    5 1
    10    4   41 1
    11    4   42 1
    12    5    6 1
    13    5   28 1
    14    6    7 1
    15    6   43 1
    16    6   44 1
    17    7    8 2
    18    7    9 am
    19    9   14 1
    20    9   10 1
    21   10   11 1
    22   10   45 1
    23   10   46 1
    24   11   12 1
    25   11   47 1
    26   11   48 1
    27   12   13 1
    28   12   49 1
    29   12   50 1
    30   13   14 1
    31   13   22 1
    32   13   51 1
    33   14   15 1
    34   14   52 1
    35   15   16 1
    36   15   53 1
    37   15   54 1
    38   16   21 1
    39   16   17 1
    40   17   18 1
    41   17   55 1
    42   17   56 1
    43   18   19 1
    44   18   57 1
    45   18   58 1
    46   19   20 1
    47   20   21 1
    48   20   59 1
    49   20   60 1
    50   21   61 1
    51   21   62 1
    52   22   27 ar
    53   22   23 ar
    54   23   24 ar
    55   23   63 1
    56   24   25 ar
    57   24   64 1
    58   25   26 ar
    59   25   65 1
    60   26   27 ar
    61   26   66 1
    62   27   67 1
    63   28   33 ar
    64   28   29 ar
    65   29   30 ar
    66   29   68 1
    67   30   31 ar
    68   30   69 1
    69   31   32 ar
    70   31   35 1
    71   32   33 ar
    72   32   34 1
    73   33   70 1
@<TRIPOS>MOLECULE
CHEMBL402813
   71    74     0     0     0
SMALL
USER_CHARGES

@<TRIPOS>ATOM
      1 C1          0.3310   -0.3258    1.8600 C.3       1 <0>         0.0313
      2 O1          0.2339   -1.7230    1.5765 O.3       1 <0>        -0.3781
      3 C2          0.9374   -2.1276    0.4003 C.3       1 <0>         0.0360
      4 C3          0.7651   -3.6341    0.1958 C.3       1 <0>         0.1270
      5 N1         -0.6437   -3.9324   -0.0733 N.pl3     1 <0>        -0.6019
      6 C4         -1.1414   -3.9365   -1.4512 C.3       1 <0>         0.1032
      7 C5         -0.9987   -5.3194   -2.0327 C.2       1 <0>         0.4816
      8 O2         -0.5276   -6.2135   -1.3623 O.2       1 <0>        -0.5001
      9 N2         -1.3945   -5.5625   -3.2979 N.am      1 <0>        -0.6267
     10 C6         -1.9613   -4.4882   -4.1245 C.3       1 <0>         0.0888
     11 C7         -3.3174   -4.9480   -4.6687 C.3       1 <0>        -0.1398
     12 C8         -3.1433   -6.2799   -5.4020 C.3       1 <0>        -0.1201
     13 C9         -2.6308   -7.3396   -4.4239 C.3       1 <0>        -0.0427
     14 C10        -1.2617   -6.9055   -3.8788 C.3       1 <0>         0.1286
     15 C11        -0.2391   -6.8735   -5.0164 C.3       1 <0>        -0.0307
     16 N3          1.0688   -6.4637   -4.4878 N.4       1 <0>        -0.3801
     17 C12         1.0764   -5.0103   -4.2717 C.3       1 <0>        -0.0672
     18 C13         2.4400   -4.5859   -3.7207 C.3       1 <0>         0.0364
     19 O3          3.4637   -4.9863   -4.6359 O.3       1 <0>        -0.3534
     20 C14         3.4816   -6.3924   -4.8975 C.3       1 <0>         0.0361
     21 C15         2.1200   -6.8202   -5.4506 C.3       1 <0>        -0.0451
     22 C16        -2.4904   -8.6585   -5.1393 C.ar      1 <0>        -0.0995
     23 C17        -1.9885   -8.6965   -6.4268 C.ar      1 <0>        -0.1333
     24 C18        -1.8597   -9.9063   -7.0830 C.ar      1 <0>        -0.1139
     25 C19        -2.2324  -11.0782   -6.4516 C.ar      1 <0>        -0.1097
     26 C20        -2.7335  -11.0403   -5.1638 C.ar      1 <0>        -0.1074
     27 C21        -2.8583   -9.8309   -4.5060 C.ar      1 <0>        -0.1061
     28 C22        -1.5129   -4.2131    0.9843 C.ar      1 <0>         0.2353
     29 C23        -2.8478   -4.5017    0.7300 C.ar      1 <0>        -0.1803
     30 C24        -3.7051   -4.7787    1.7766 C.ar      1 <0>        -0.0544
     31 C25        -3.2360   -4.7687    3.0784 C.ar      1 <0>        -0.0796
     32 C26        -1.9061   -4.4810    3.3355 C.ar      1 <0>         0.0145
     33 C27        -1.0424   -4.2095    2.2908 C.ar      1 <0>        -0.1433
     34 Cl1        -1.3215   -4.4683    4.9700 Cl        1 <0>        -0.0419
     35 Cl2        -4.3168   -5.1169    4.3916 Cl        1 <0>        -0.0507
     36 H1          1.3774   -0.0557    2.0022 H         1 <0>         0.0433
     37 H2         -0.0813    0.2435    1.0269 H         1 <0>         0.0405
     38 H3         -0.2292   -0.0994    2.7673 H         1 <0>         0.0898
     39 H4          0.5378   -1.5957   -0.4631 H         1 <0>         0.0495
     40 H5          1.9964   -1.8949    0.5122 H         1 <0>         0.0616
     41 H6          1.3729   -3.9580   -0.6491 H         1 <0>         0.0835
     42 H7          1.0828   -4.1615    1.0953 H         1 <0>         0.0935
     43 H8         -2.1919   -3.6457   -1.4589 H         1 <0>         0.1181
     44 H9         -0.5644   -3.2300   -2.0479 H         1 <0>         0.1081
     45 H10        -2.0956   -3.5926   -3.5179 H         1 <0>         0.1010
     46 H11        -1.2886   -4.2722   -4.9546 H         1 <0>         0.0751
     47 H12        -4.0165   -5.0764   -3.8423 H         1 <0>         0.0803
     48 H13        -3.7046   -4.1998   -5.3604 H         1 <0>         0.0917
     49 H14        -4.1023   -6.5972   -5.8115 H         1 <0>         0.0865
     50 H15        -2.4254   -6.1568   -6.2129 H         1 <0>         0.0674
     51 H16        -3.3363   -7.4455   -3.5998 H         1 <0>         0.1043
     52 H17        -0.9343   -7.6054   -3.1100 H         1 <0>         0.1255
     53 H18        -0.1572   -7.8660   -5.4594 H         1 <0>         0.1512
     54 H19        -0.5630   -6.1622   -5.7762 H         1 <0>         0.1367
     55 H20         0.8919   -4.5011   -5.2176 H         1 <0>         0.1391
     56 H21         0.2970   -4.7448   -3.5575 H         1 <0>         0.1456
     57 H22         2.4628   -3.5028   -3.6002 H         1 <0>         0.1400
     58 H23         2.6073   -5.0638   -2.7555 H         1 <0>         0.0793
     59 H24         4.2583   -6.6167   -5.6286 H         1 <0>         0.1440
     60 H25         3.6846   -6.9322   -3.9725 H         1 <0>         0.0815
     61 H26         2.1153   -7.8982   -5.6116 H         1 <0>         0.1433
     62 H27         1.9351   -6.3103   -6.3961 H         1 <0>         0.1398
     63 H28        -1.6973   -7.7809   -6.9200 H         1 <0>         0.1205
     64 H29        -1.4682   -9.9359   -8.0891 H         1 <0>         0.1271
     65 H30        -2.1324  -12.0233   -6.9646 H         1 <0>         0.1285
     66 H31        -3.0250  -11.9558   -4.6707 H         1 <0>         0.1294
     67 H32        -3.2463   -9.8017   -3.4986 H         1 <0>         0.1258
     68 H33        -3.2150   -4.5090   -0.2856 H         1 <0>         0.1249
     69 H34        -4.7429   -5.0031    1.5789 H         1 <0>         0.1410
     70 H35        -0.0041   -3.9899    2.4909 H         1 <0>         0.1459
     71 H36         1.2405   -6.9350   -3.6123 H         1 <0>         0.4238
@<TRIPOS>BOND
     1    1    2 1
     2    1   36 1
     3    1   37 1
     4    1   38 1
     5    2    3 1
     6    3    4 1
     7    3   39 1
     8    3   40 1
     9    4    5 1
    10    4   41 1
    11    4   42 1
    12    5    6 1
    13    5   28 1
    14    6    7 1
    15    6   43 1
    16    6   44 1
    17    7    8 2
    18    7    9 am
    19    9   14 1
    20    9   10 1
    21   10   11 1
    22   10   45 1
    23   10   46 1
    24   11   12 1
    25   11   47 1
    26   11   48 1
    27   12   13 1
    28   12   49 1
    29   12   50 1
    30   13   14 1
    31   13   22 1
    32   13   51 1
    33   14   15 1
    34   14   52 1
    35   15   16 1
    36   15   53 1
    37   15   54 1
    38   16   21 1
    39   16   17 1
    40   16   71 1
    41   17   18 1
    42   17   55 1
    43   17   56 1
    44   18   19 1
    45   18   57 1
    46   18   58 1
    47   19   20 1
    48   20   21 1
    49   20   59 1
    50   20   60 1
    51   21   61 1
    52   21   62 1
    53   22   27 ar
    54   22   23 ar
    55   23   24 ar
    56   23   63 1
    57   24   25 ar
    58   24   64 1
    59   25   26 ar
    60   25   65 1
    61   26   27 ar
    62   26   66 1
    63   27   67 1
    64   28   33 ar
    65   28   29 ar
    66   29   30 ar
    67   29   68 1
    68   30   31 ar
    69   30   69 1
    70   31   32 ar
    71   31   35 1
    72   32   33 ar
    73   32   34 1
    74   33   70 1
@<TRIPOS>MOLECULE
CHEMBL402813
   70    73     0     0     0
SMALL
USER_CHARGES

@<TRIPOS>ATOM
      1 C1         -0.5252    1.6953   -0.4661 C.3       1 <0>         0.0323
      2 O1         -0.5632    0.2701   -0.3695 O.3       1 <0>        -0.3782
      3 C2          0.2321   -0.4003   -1.3494 C.3       1 <0>         0.0382
      4 C3          0.1166   -1.9131   -1.1520 C.3       1 <0>         0.1271
      5 N1         -1.2610   -2.3361   -1.4155 N.pl3     1 <0>        -0.5975
      6 C4         -1.6604   -2.7292   -2.7691 C.3       1 <0>         0.1060
      7 C5         -1.4387   -4.2090   -2.9484 C.2       1 <0>         0.4999
      8 O2         -0.9913   -4.8702   -2.0354 O.2       1 <0>        -0.5225
      9 N2         -1.7378   -4.7977   -4.1234 N.am      1 <0>        -0.5909
     10 C6         -2.2748   -4.0089   -5.2406 C.3       1 <0>         0.1065
     11 C7         -1.4051   -4.2511   -6.4781 C.3       1 <0>        -0.1358
     12 C8         -1.3227   -5.7545   -6.7525 C.3       1 <0>        -0.1146
     13 C9         -0.6715   -6.4576   -5.5593 C.3       1 <0>        -0.0542
     14 C10        -1.5272   -6.2393   -4.3133 C.3       1 <0>         0.1592
     15 C11        -2.8776   -6.9353   -4.4953 C.3       1 <0>         0.0401
     16 N3         -3.7466   -6.6245   -3.3525 N.3       1 <0>        -0.5251
     17 C12        -3.2199   -7.2159   -2.1139 C.3       1 <0>         0.0139
     18 C13        -4.1209   -6.8186   -0.9416 C.3       1 <0>         0.0690
     19 O3         -5.4611   -7.2367   -1.2139 O.3       1 <0>        -0.3847
     20 C14        -6.0059   -6.6789   -2.4129 C.3       1 <0>         0.0659
     21 C15        -5.1240   -7.0749   -3.6001 C.3       1 <0>         0.0184
     22 C16        -0.5614   -7.9334   -5.8439 C.ar      1 <0>        -0.0793
     23 C17         0.5850   -8.6214   -5.4929 C.ar      1 <0>        -0.1125
     24 C18         0.6859   -9.9751   -5.7539 C.ar      1 <0>        -0.1166
     25 C19        -0.3597  -10.6409   -6.3656 C.ar      1 <0>        -0.1197
     26 C20        -1.5065   -9.9531   -6.7159 C.ar      1 <0>        -0.1195
     27 C21        -1.6092   -8.6003   -6.4510 C.ar      1 <0>        -0.1143
     28 C22        -2.1942   -2.3647   -0.3757 C.ar      1 <0>         0.2487
     29 C23        -3.4994   -2.7711   -0.6232 C.ar      1 <0>        -0.1781
     30 C24        -4.4200   -2.7986    0.4058 C.ar      1 <0>        -0.0530
     31 C25        -4.0440   -2.4213    1.6830 C.ar      1 <0>        -0.0870
     32 C26        -2.7440   -2.0153    1.9330 C.ar      1 <0>         0.0160
     33 C27        -1.8169   -1.9923    0.9077 C.ar      1 <0>        -0.1505
     34 Cl1        -2.2762   -1.5416    3.5363 Cl        1 <0>        -0.0535
     35 Cl2        -5.2043   -2.4566    2.9738 Cl        1 <0>        -0.0623
     36 H1          0.5007    2.0409   -0.3389 H         1 <0>         0.0401
     37 H2         -0.8936    2.0031   -1.4448 H         1 <0>         0.0386
     38 H3         -1.1538    2.1291    0.3116 H         1 <0>         0.0862
     39 H4         -0.1205   -0.1360   -2.3463 H         1 <0>         0.0501
     40 H5          1.2738   -0.0982   -1.2405 H         1 <0>         0.0590
     41 H6          0.7910   -2.4219   -1.8407 H         1 <0>         0.0916
     42 H7          0.3848   -2.1672   -0.1265 H         1 <0>         0.0888
     43 H8         -2.7154   -2.4992   -2.9179 H         1 <0>         0.1063
     44 H9         -1.0628   -2.1814   -3.4977 H         1 <0>         0.1024
     45 H10        -3.2992   -4.3188   -5.4475 H         1 <0>         0.0740
     46 H11        -2.2563   -2.9501   -4.9825 H         1 <0>         0.0820
     47 H12        -1.8476   -3.7481   -7.3379 H         1 <0>         0.0795
     48 H13        -0.4038   -3.8581   -6.3017 H         1 <0>         0.0686
     49 H14        -2.3264   -6.1514   -6.9044 H         1 <0>         0.0693
     50 H15        -0.7246   -5.9281   -7.6471 H         1 <0>         0.0708
     51 H16         0.3228   -6.0438   -5.3916 H         1 <0>         0.0850
     52 H17        -1.0156   -6.6516   -3.4437 H         1 <0>         0.1002
     53 H18        -3.3465   -6.5839   -5.4144 H         1 <0>         0.0793
     54 H19        -2.7259   -8.0131   -4.5539 H         1 <0>         0.0535
     55 H20        -3.2024   -8.3017   -2.2078 H         1 <0>         0.0364
     56 H21        -2.2089   -6.8490   -1.9366 H         1 <0>         0.0993
     57 H22        -3.7670   -7.3013   -0.0307 H         1 <0>         0.0941
     58 H23        -4.0960   -5.7363   -0.8140 H         1 <0>         0.0600
     59 H24        -7.0153   -7.0607   -2.5661 H         1 <0>         0.0956
     60 H25        -6.0358   -5.5926   -2.3281 H         1 <0>         0.0571
     61 H26        -5.5029   -6.6050   -4.5077 H         1 <0>         0.0824
     62 H27        -5.1370   -8.1584   -3.7178 H         1 <0>         0.0410
     63 H28         1.4019   -8.1012   -5.0149 H         1 <0>         0.1208
     64 H29         1.5819  -10.5125   -5.4802 H         1 <0>         0.1226
     65 H30        -0.2806  -11.6984   -6.5702 H         1 <0>         0.1216
     66 H31        -2.3233  -10.4732   -7.1941 H         1 <0>         0.1215
     67 H32        -2.5066   -8.0637   -6.7212 H         1 <0>         0.1213
     68 H33        -3.7940   -3.0650   -1.6197 H         1 <0>         0.1291
     69 H34        -5.4347   -3.1145    0.2135 H         1 <0>         0.1368
     70 H35        -0.8017   -1.6803    1.1037 H         1 <0>         0.1436
@<TRIPOS>BOND
     1    1    2 1
     2    1   36 1
     3    1   37 1
     4    1   38 1
     5    2    3 1
     6    3    4 1
     7    3   39 1
     8    3   40 1
     9    4    5 1
    10    4   41 1
    11    4   42 1
    12    5    6 1
    13    5   28 1
    14    6    7 1
    15    6   43 1
    16    6   44 1
    17    7    8 2
    18    7    9 am
    19    9   14 1
    20    9   10 1
    21   10   11 1
    22   10   45 1
    23   10   46 1
    24   11   12 1
    25   11   47 1
    26   11   48 1
    27   12   13 1
    28   12   49 1
    29   12   50 1
    30   13   14 1
    31   13   22 1
    32   13   51 1
    33   14   15 1
    34   14   52 1
    35   15   16 1
    36   15   53 1
    37   15   54 1
    38   16   21 1
    39   16   17 1
    40   17   18 1
    41   17   55 1
    42   17   56 1
    43   18   19 1
    44   18   57 1
    45   18   58 1
    46   19   20 1
    47   20   21 1
    48   20   59 1
    49   20   60 1
    50   21   61 1
    51   21   62 1
    52   22   27 ar
    53   22   23 ar
    54   23   24 ar
    55   23   63 1
    56   24   25 ar
    57   24   64 1
    58   25   26 ar
    59   25   65 1
    60   26   27 ar
    61   26   66 1
    62   27   67 1
    63   28   33 ar
    64   28   29 ar
    65   29   30 ar
    66   29   68 1
    67   30   31 ar
    68   30   69 1
    69   31   32 ar
    70   31   35 1
    71   32   33 ar
    72   32   34 1
    73   33   70 1
@<TRIPOS>MOLECULE
CHEMBL402813
   71    74     0     0     0
SMALL
USER_CHARGES

@<TRIPOS>ATOM
      1 C1         -0.5315    1.7357   -0.5477 C.3       1 <0>         0.0315
      2 O1         -0.5695    0.3116   -0.4358 O.3       1 <0>        -0.3811
      3 C2          0.2283   -0.3692   -1.4064 C.3       1 <0>         0.0367
      4 C3          0.1124   -1.8798   -1.1929 C.3       1 <0>         0.1249
      5 N1         -1.2645   -2.3059   -1.4552 N.pl3     1 <0>        -0.5986
      6 C4         -1.6604   -2.7137   -2.8055 C.3       1 <0>         0.1048
      7 C5         -1.4382   -4.1953   -2.9682 C.2       1 <0>         0.4856
      8 O2         -0.9929   -4.8465   -2.0470 O.2       1 <0>        -0.5042
      9 N2         -1.7343   -4.7967   -4.1375 N.am      1 <0>        -0.6292
     10 C6         -2.2687   -4.0201   -5.2644 C.3       1 <0>         0.0940
     11 C7         -1.3958   -4.2756   -6.4972 C.3       1 <0>        -0.1398
     12 C8         -1.3126   -5.7818   -6.7551 C.3       1 <0>        -0.1201
     13 C9         -0.6643   -6.4719   -5.5528 C.3       1 <0>        -0.0449
     14 C10        -1.5231   -6.2402   -4.3113 C.3       1 <0>         0.1281
     15 C11        -2.8729   -6.9383   -4.4891 C.3       1 <0>        -0.0310
     16 N3         -3.7390   -6.6285   -3.3437 N.4       1 <0>        -0.3817
     17 C12        -3.1615   -7.2064   -2.1223 C.3       1 <0>        -0.0546
     18 C13        -4.0655   -6.8821   -0.9304 C.3       1 <0>         0.0410
     19 O3         -5.3785   -7.3906   -1.1823 O.3       1 <0>        -0.3529
     20 C14        -5.9745   -6.8748   -2.3758 C.3       1 <0>         0.0364
     21 C15        -5.0740   -7.1991   -3.5704 C.3       1 <0>        -0.0459
     22 C16        -0.5534   -7.9506   -5.8211 C.ar      1 <0>        -0.0991
     23 C17         0.5908   -8.6353   -5.4564 C.ar      1 <0>        -0.1066
     24 C18         0.6925   -9.9918   -5.7026 C.ar      1 <0>        -0.1076
     25 C19        -0.3500  -10.6636   -6.3130 C.ar      1 <0>        -0.1095
     26 C20        -1.4945   -9.9791   -6.6769 C.ar      1 <0>        -0.1134
     27 C21        -1.5980   -8.6234   -6.4269 C.ar      1 <0>        -0.1326
     28 C22        -2.2002   -2.3234   -0.4175 C.ar      1 <0>         0.2437
     29 C23        -3.5047   -2.7326   -0.6637 C.ar      1 <0>        -0.1958
     30 C24        -4.4279   -2.7491    0.3632 C.ar      1 <0>        -0.0568
     31 C25        -4.0551   -2.3580    1.6371 C.ar      1 <0>        -0.0837
     32 C26        -2.7557   -1.9491    1.8859 C.ar      1 <0>         0.0190
     33 C27        -1.8261   -1.9371    0.8628 C.ar      1 <0>        -0.1433
     34 Cl1        -2.2919   -1.4580    3.4852 Cl        1 <0>        -0.0386
     35 Cl2        -5.2185   -2.3794    2.9255 Cl        1 <0>        -0.0500
     36 H1          0.4941    2.0828   -0.4217 H         1 <0>         0.0437
     37 H2         -0.8975    2.0328   -1.5305 H         1 <0>         0.0401
     38 H3         -1.1620    2.1777    0.2237 H         1 <0>         0.0889
     39 H4         -0.1219   -0.1158   -2.4070 H         1 <0>         0.0503
     40 H5          1.2696   -0.0658   -1.2982 H         1 <0>         0.0633
     41 H6          0.7886   -2.3960   -1.8744 H         1 <0>         0.0927
     42 H7          0.3782   -2.1228   -0.1641 H         1 <0>         0.0929
     43 H8         -2.7151   -2.4854   -2.9593 H         1 <0>         0.1106
     44 H9         -1.0611   -2.1737   -3.5385 H         1 <0>         0.1154
     45 H10        -3.2925   -4.3323   -5.4705 H         1 <0>         0.0728
     46 H11        -2.2509   -2.9585   -5.0178 H         1 <0>         0.1000
     47 H12        -1.8363   -3.7819   -7.3634 H         1 <0>         0.0912
     48 H13        -0.3951   -3.8805   -6.3226 H         1 <0>         0.0791
     49 H14        -2.3159   -6.1805   -6.9051 H         1 <0>         0.0677
     50 H15        -0.7123   -5.9650   -7.6462 H         1 <0>         0.0861
     51 H16         0.3296   -6.0561   -5.3871 H         1 <0>         0.1027
     52 H17        -1.0135   -6.6430   -3.4360 H         1 <0>         0.1257
     53 H18        -3.3451   -6.5879   -5.4069 H         1 <0>         0.1371
     54 H19        -2.7197   -8.0159   -4.5478 H         1 <0>         0.1499
     55 H20        -3.0814   -8.2877   -2.2343 H         1 <0>         0.1393
     56 H21        -2.1711   -6.7837   -1.9532 H         1 <0>         0.1502
     57 H22        -3.6619   -7.3461   -0.0305 H         1 <0>         0.1425
     58 H23        -4.1137   -5.8018   -0.7935 H         1 <0>         0.0804
     59 H24        -6.9523   -7.3335   -2.5220 H         1 <0>         0.1433
     60 H25        -6.0880   -5.7942   -2.2883 H         1 <0>         0.0787
     61 H26        -5.5033   -6.7710   -4.4762 H         1 <0>         0.1409
     62 H27        -4.9931   -8.2804   -3.6819 H         1 <0>         0.1414
     63 H28         1.4053   -8.1105   -4.9795 H         1 <0>         0.1252
     64 H29         1.5867  -10.5266   -5.4183 H         1 <0>         0.1293
     65 H30        -0.2702  -11.7232   -6.5060 H         1 <0>         0.1286
     66 H31        -2.3089  -10.5039   -7.1541 H         1 <0>         0.1272
     67 H32        -2.4937   -8.0893   -6.7078 H         1 <0>         0.1199
     68 H33        -3.7969   -3.0373   -1.6578 H         1 <0>         0.1179
     69 H34        -5.4421   -3.0672    0.1718 H         1 <0>         0.1378
     70 H35        -0.8115   -1.6228    1.0579 H         1 <0>         0.1478
     71 H36        -3.8141   -5.6277   -3.2396 H         1 <0>         0.4145
@<TRIPOS>BOND
     1    1    2 1
     2    1   36 1
     3    1   37 1
     4    1   38 1
     5    2    3 1
     6    3    4 1
     7    3   39 1
     8    3   40 1
     9    4    5 1
    10    4   41 1
    11    4   42 1
    12    5    6 1
    13    5   28 1
    14    6    7 1
    15    6   43 1
    16    6   44 1
    17    7    8 2
    18    7    9 am
    19    9   14 1
    20    9   10 1
    21   10   11 1
    22   10   45 1
    23   10   46 1
    24   11   12 1
    25   11   47 1
    26   11   48 1
    27   12   13 1
    28   12   49 1
    29   12   50 1
    30   13   14 1
    31   13   22 1
    32   13   51 1
    33   14   15 1
    34   14   52 1
    35   15   16 1
    36   15   53 1
    37   15   54 1
    38   16   21 1
    39   16   17 1
    40   16   71 1
    41   17   18 1
    42   17   55 1
    43   17   56 1
    44   18   19 1
    45   18   57 1
    46   18   58 1
    47   19   20 1
    48   20   21 1
    49   20   59 1
    50   20   60 1
    51   21   61 1
    52   21   62 1
    53   22   27 ar
    54   22   23 ar
    55   23   24 ar
    56   23   63 1
    57   24   25 ar
    58   24   64 1
    59   25   26 ar
    60   25   65 1
    61   26   27 ar
    62   26   66 1
    63   27   67 1
    64   28   33 ar
    65   28   29 ar
    66   29   30 ar
    67   29   68 1
    68   30   31 ar
    69   30   69 1
    70   31   32 ar
    71   31   35 1
    72   32   33 ar
    73   32   34 1
    74   33   70 1
@<TRIPOS>MOLECULE
CHEMBL402813
   70    73     0     0     0
SMALL
USER_CHARGES

@<TRIPOS>ATOM
      1 C1         -0.6900    1.1005    0.6779 C.3       1 <0>         0.0318
      2 O1         -0.6742   -0.3212    0.5352 O.3       1 <0>        -0.3788
      3 C2          0.2150   -0.7937   -0.4788 C.3       1 <0>         0.0378
      4 C3          0.1501   -2.3210   -0.5427 C.3       1 <0>         0.1279
      5 N1         -1.1867   -2.7354   -0.9757 N.pl3     1 <0>        -0.5982
      6 C4         -1.4740   -2.9081   -2.4018 C.3       1 <0>         0.1035
      7 C5         -1.0826   -4.2996   -2.8281 C.2       1 <0>         0.4904
      8 O2         -0.6946   -5.0998   -2.0036 O.2       1 <0>        -0.5133
      9 N2         -1.1639   -4.6547   -4.1257 N.am      1 <0>        -0.6097
     10 C6         -1.7238   -3.7304   -5.1212 C.3       1 <0>         0.1047
     11 C7         -0.7138   -3.5620   -6.2606 C.3       1 <0>        -0.1359
     12 C8         -0.3457   -4.9387   -6.8183 C.3       1 <0>        -0.1148
     13 C9          0.3041   -5.7800   -5.7173 C.3       1 <0>        -0.0505
     14 C10        -0.6888   -5.9712   -4.5727 C.3       1 <0>         0.1612
     15 C11         0.0025   -6.6884   -3.4114 C.3       1 <0>         0.0574
     16 N3          0.4207   -8.0288   -3.8431 N.3       1 <0>        -0.5264
     17 C12        -0.7330   -8.9348   -3.9407 C.3       1 <0>         0.0221
     18 C13        -0.2616  -10.2996   -4.4495 C.3       1 <0>         0.0484
     19 O3          0.7512  -10.8050   -3.5753 O.3       1 <0>        -0.3851
     20 C14         1.8899   -9.9478   -3.4573 C.3       1 <0>         0.0632
     21 C15         1.4404   -8.5794   -2.9383 C.3       1 <0>         0.0275
     22 C16         0.6955   -7.1238   -6.2759 C.ar      1 <0>        -0.0228
     23 C17        -0.2684   -7.9563   -6.8132 C.ar      1 <0>        -0.1165
     24 C18         0.0906   -9.1890   -7.3256 C.ar      1 <0>        -0.1168
     25 C19         1.4136   -9.5889   -7.3010 C.ar      1 <0>        -0.1287
     26 C20         2.3777   -8.7560   -6.7646 C.ar      1 <0>        -0.1157
     27 C21         2.0192   -7.5216   -6.2561 C.ar      1 <0>        -0.0941
     28 C22        -2.1878   -2.9658   -0.0284 C.ar      1 <0>         0.2446
     29 C23        -3.4221   -3.4629   -0.4274 C.ar      1 <0>        -0.1800
     30 C24        -4.4101   -3.6899    0.5104 C.ar      1 <0>        -0.0544
     31 C25        -4.1721   -3.4224    1.8470 C.ar      1 <0>        -0.0867
     32 C26        -2.9430   -2.9264    2.2481 C.ar      1 <0>         0.0153
     33 C27        -1.9485   -2.7037    1.3141 C.ar      1 <0>        -0.1484
     34 Cl1        -2.6485   -2.5909    3.9257 Cl        1 <0>        -0.0516
     35 Cl2        -5.4167   -3.7084    3.0230 Cl        1 <0>        -0.0611
     36 H1          0.3090    1.4507    0.9375 H         1 <0>         0.0406
     37 H2         -1.0022    1.5566   -0.2616 H         1 <0>         0.0390
     38 H3         -1.3889    1.3787    1.4667 H         1 <0>         0.0866
     39 H4         -0.0784   -0.3770   -1.4423 H         1 <0>         0.0506
     40 H5          1.2328   -0.4828   -0.2432 H         1 <0>         0.0597
     41 H6          0.8917   -2.6868   -1.2529 H         1 <0>         0.0913
     42 H7          0.3570   -2.7351    0.4441 H         1 <0>         0.0887
     43 H8         -2.5393   -2.7601   -2.5784 H         1 <0>         0.1085
     44 H9         -0.9054   -2.1782   -2.9780 H         1 <0>         0.1039
     45 H10        -2.6547   -4.1380   -5.5153 H         1 <0>         0.0748
     46 H11        -1.9141   -2.7634   -4.6556 H         1 <0>         0.0853
     47 H12        -1.1552   -2.9553   -7.0513 H         1 <0>         0.0804
     48 H13         0.1829   -3.0711   -5.8823 H         1 <0>         0.0686
     49 H14        -1.2464   -5.4392   -7.1739 H         1 <0>         0.0673
     50 H15         0.3541   -4.8202   -7.6455 H         1 <0>         0.0705
     51 H16         1.1912   -5.2682   -5.3442 H         1 <0>         0.0771
     52 H17        -1.5334   -6.5656   -4.9212 H         1 <0>         0.0732
     53 H18         0.8773   -6.1173   -3.1007 H         1 <0>         0.0747
     54 H19        -0.6903   -6.7760   -2.5744 H         1 <0>         0.0811
     55 H20        -1.1890   -9.0506   -2.9575 H         1 <0>         0.0371
     56 H21        -1.4637   -8.5200   -4.6350 H         1 <0>         0.0794
     57 H22        -1.1037  -10.9914   -4.4692 H         1 <0>         0.0878
     58 H23         0.1458  -10.1924   -5.4549 H         1 <0>         0.0792
     59 H24         2.6039  -10.3852   -2.7593 H         1 <0>         0.0913
     60 H25         2.3598   -9.8304   -4.4337 H         1 <0>         0.0622
     61 H26         2.2960   -7.9053   -2.9010 H         1 <0>         0.0795
     62 H27         1.0191   -8.6896   -1.9391 H         1 <0>         0.0396
     63 H28        -1.3020   -7.6438   -6.8323 H         1 <0>         0.1096
     64 H29        -0.6626   -9.8397   -7.7447 H         1 <0>         0.1151
     65 H30         1.6940  -10.5523   -7.7007 H         1 <0>         0.1144
     66 H31         3.4112   -9.0686   -6.7451 H         1 <0>         0.1137
     67 H32         2.7729   -6.8693   -5.8403 H         1 <0>         0.1094
     68 H33        -3.6091   -3.6713   -1.4705 H         1 <0>         0.1274
     69 H34        -5.3697   -4.0763    0.2002 H         1 <0>         0.1385
     70 H35        -0.9883   -2.3215    1.6275 H         1 <0>         0.1476
@<TRIPOS>BOND
     1    1    2 1
     2    1   36 1
     3    1   37 1
     4    1   38 1
     5    2    3 1
     6    3    4 1
     7    3   39 1
     8    3   40 1
     9    4    5 1
    10    4   41 1
    11    4   42 1
    12    5    6 1
    13    5   28 1
    14    6    7 1
    15    6   43 1
    16    6   44 1
    17    7    8 2
    18    7    9 am
    19    9   14 1
    20    9   10 1
    21   10   11 1
    22   10   45 1
    23   10   46 1
    24   11   12 1
    25   11   47 1
    26   11   48 1
    27   12   13 1
    28   12   49 1
    29   12   50 1
    30   13   14 1
    31   13   22 1
    32   13   51 1
    33   14   15 1
    34   14   52 1
    35   15   16 1
    36   15   53 1
    37   15   54 1
    38   16   21 1
    39   16   17 1
    40   17   18 1
    41   17   55 1
    42   17   56 1
    43   18   19 1
    44   18   57 1
    45   18   58 1
    46   19   20 1
    47   20   21 1
    48   20   59 1
    49   20   60 1
    50   21   61 1
    51   21   62 1
    52   22   27 ar
    53   22   23 ar
    54   23   24 ar
    55   23   63 1
    56   24   25 ar
    57   24   64 1
    58   25   26 ar
    59   25   65 1
    60   26   27 ar
    61   26   66 1
    62   27   67 1
    63   28   33 ar
    64   28   29 ar
    65   29   30 ar
    66   29   68 1
    67   30   31 ar
    68   30   69 1
    69   31   32 ar
    70   31   35 1
    71   32   33 ar
    72   32   34 1
    73   33   70 1
@<TRIPOS>MOLECULE
CHEMBL402813
   71    74     0     0     0
SMALL
USER_CHARGES

@<TRIPOS>ATOM
      1 C1         -0.9659    0.7506    1.2407 C.3       1 <0>         0.0311
      2 O1         -0.8682   -0.6642    1.0645 O.3       1 <0>        -0.3796
      3 C2         -0.0259   -1.0579   -0.0207 C.3       1 <0>         0.0357
      4 C3          0.0041   -2.5847   -0.1151 C.3       1 <0>         0.1281
      5 N1         -1.3308   -3.0788   -0.4616 N.pl3     1 <0>        -0.6010
      6 C4         -1.7086   -3.2440   -1.8674 C.3       1 <0>         0.1061
      7 C5         -1.2502   -4.5941   -2.3554 C.2       1 <0>         0.5010
      8 O2         -0.7467   -5.3800   -1.5810 O.2       1 <0>        -0.5228
      9 N2         -1.3999   -4.9283   -3.6525 N.am      1 <0>        -0.6032
     10 C6         -2.0750   -4.0175   -4.5871 C.3       1 <0>         0.1008
     11 C7         -1.1551   -3.7716   -5.7870 C.3       1 <0>        -0.1407
     12 C8         -0.7518   -5.1149   -6.3994 C.3       1 <0>        -0.1109
     13 C9          0.0156   -5.9398   -5.3636 C.3       1 <0>        -0.0722
     14 C10        -0.8857   -6.2076   -4.1601 C.3       1 <0>         0.1345
     15 C11        -0.0797   -6.9076   -3.0640 C.3       1 <0>        -0.0237
     16 N3          0.2827   -8.2594   -3.5103 N.4       1 <0>        -0.3976
     17 C12        -0.9360   -9.0622   -3.6813 C.3       1 <0>        -0.0513
     18 C13        -0.5558  -10.4700   -4.1466 C.3       1 <0>         0.0300
     19 O3          0.3313  -11.0587   -3.1914 O.3       1 <0>        -0.3520
     20 C14         1.5240  -10.3001   -2.9722 C.3       1 <0>         0.0363
     21 C15         1.1475   -8.8920   -2.5048 C.3       1 <0>        -0.0411
     22 C16         0.4402   -7.2489   -5.9775 C.ar      1 <0>        -0.1253
     23 C17        -0.5086   -8.1058   -6.5032 C.ar      1 <0>        -0.1278
     24 C18        -0.1191   -9.3066   -7.0664 C.ar      1 <0>        -0.1079
     25 C19         1.2193   -9.6503   -7.1042 C.ar      1 <0>        -0.1062
     26 C20         2.1682   -8.7930   -6.5794 C.ar      1 <0>        -0.1106
     27 C21         1.7791   -7.5903   -6.0201 C.ar      1 <0>        -0.1373
     28 C22        -2.2437   -3.3926    0.5487 C.ar      1 <0>         0.2360
     29 C23        -3.4687   -3.9635    0.2269 C.ar      1 <0>        -0.1823
     30 C24        -4.3695   -4.2728    1.2269 C.ar      1 <0>        -0.0554
     31 C25        -4.0536   -4.0143    2.5491 C.ar      1 <0>        -0.0821
     32 C26        -2.8336   -3.4449    2.8733 C.ar      1 <0>         0.0142
     33 C27        -1.9258   -3.1395    1.8765 C.ar      1 <0>        -0.1442
     34 Cl1        -2.4412   -3.1209    4.5331 Cl        1 <0>        -0.0432
     35 Cl2        -5.1887   -4.4039    3.8034 Cl        1 <0>        -0.0525
     36 H1          0.0244    1.1615    1.4369 H         1 <0>         0.0429
     37 H2         -1.3741    1.2020    0.3365 H         1 <0>         0.0405
     38 H3         -1.6226    0.9672    2.0833 H         1 <0>         0.0892
     39 H4         -0.4146   -0.6439   -0.9511 H         1 <0>         0.0504
     40 H5          0.9840   -0.6844    0.1493 H         1 <0>         0.0613
     41 H6          0.7146   -2.8873   -0.8843 H         1 <0>         0.0884
     42 H7          0.3082   -3.0021    0.8448 H         1 <0>         0.0910
     43 H8         -2.7919   -3.1715   -1.9634 H         1 <0>         0.1175
     44 H9         -1.2378   -2.4629   -2.4643 H         1 <0>         0.1113
     45 H10        -3.0071   -4.4684   -4.9276 H         1 <0>         0.0854
     46 H11        -2.2852   -3.0716   -4.0878 H         1 <0>         0.0994
     47 H12        -1.6811   -3.1752   -6.5325 H         1 <0>         0.0938
     48 H13        -0.2627   -3.2391   -5.4582 H         1 <0>         0.0753
     49 H14        -1.6462   -5.6576   -6.7055 H         1 <0>         0.0748
     50 H15        -0.1170   -4.9419   -7.2684 H         1 <0>         0.0829
     51 H16         0.8970   -5.3869   -5.0387 H         1 <0>         0.0977
     52 H17        -1.7187   -6.8411   -4.4650 H         1 <0>         0.0948
     53 H18         0.8264   -6.3375   -2.8591 H         1 <0>         0.1298
     54 H19        -0.6806   -6.9733   -2.1570 H         1 <0>         0.1817
     55 H20        -1.4669   -9.1242   -2.7314 H         1 <0>         0.1401
     56 H21        -1.5783   -8.5938   -4.4272 H         1 <0>         0.1334
     57 H22        -1.4549  -11.0802   -4.2327 H         1 <0>         0.1407
     58 H23        -0.0604  -10.4117   -5.1158 H         1 <0>         0.0810
     59 H24         2.1300  -10.7873   -2.2084 H         1 <0>         0.1429
     60 H25         2.0905  -10.2360   -3.9012 H         1 <0>         0.0756
     61 H26         2.0521   -8.2973   -2.3773 H         1 <0>         0.1370
     62 H27         0.6159   -8.9540   -1.5553 H         1 <0>         0.1398
     63 H28        -1.5543   -7.8372   -6.4736 H         1 <0>         0.1363
     64 H29        -0.8605   -9.9764   -7.4764 H         1 <0>         0.1418
     65 H30         1.5236  -10.5888   -7.5436 H         1 <0>         0.1406
     66 H31         3.2138   -9.0617   -6.6087 H         1 <0>         0.1407
     67 H32         2.5208   -6.9188   -5.6133 H         1 <0>         0.1370
     68 H33        -3.7165   -4.1650   -0.8048 H         1 <0>         0.1252
     69 H34        -5.3218   -4.7166    0.9767 H         1 <0>         0.1401
     70 H35        -0.9724   -2.6999    2.1298 H         1 <0>         0.1489
     71 H36         0.7746   -8.2029   -4.3895 H         1 <0>         0.4081
@<TRIPOS>BOND
     1    1    2 1
     2    1   36 1
     3    1   37 1
     4    1   38 1
     5    2    3 1
     6    3    4 1
     7    3   39 1
     8    3   40 1
     9    4    5 1
    10    4   41 1
    11    4   42 1
    12    5    6 1
    13    5   28 1
    14    6    7 1
    15    6   43 1
    16    6   44 1
    17    7    8 2
    18    7    9 am
    19    9   14 1
    20    9   10 1
    21   10   11 1
    22   10   45 1
    23   10   46 1
    24   11   12 1
    25   11   47 1
    26   11   48 1
    27   12   13 1
    28   12   49 1
    29   12   50 1
    30   13   14 1
    31   13   22 1
    32   13   51 1
    33   14   15 1
    34   14   52 1
    35   15   16 1
    36   15   53 1
    37   15   54 1
    38   16   21 1
    39   16   17 1
    40   16   71 1
    41   17   18 1
    42   17   55 1
    43   17   56 1
    44   18   19 1
    45   18   57 1
    46   18   58 1
    47   19   20 1
    48   20   21 1
    49   20   59 1
    50   20   60 1
    51   21   61 1
    52   21   62 1
    53   22   27 ar
    54   22   23 ar
    55   23   24 ar
    56   23   63 1
    57   24   25 ar
    58   24   64 1
    59   25   26 ar
    60   25   65 1
    61   26   27 ar
    62   26   66 1
    63   27   67 1
    64   28   33 ar
    65   28   29 ar
    66   29   30 ar
    67   29   68 1
    68   30   31 ar
    69   30   69 1
    70   31   32 ar
    71   31   35 1
    72   32   33 ar
    73   32   34 1
    74   33   70 1
@<TRIPOS>MOLECULE
CHEMBL115876
   38    40     0     0     0
SMALL
USER_CHARGES

@<TRIPOS>ATOM
      1 C1         -0.0167    1.3821    0.0096 C.ar      1 <0>        -0.0724
      2 C2          1.1937    2.0586    0.0017 C.ar      1 <0>        -0.1771
      3 C3          2.3701    1.3338   -0.0134 C.ar      1 <0>         0.1038
      4 N1          2.3500    0.0151   -0.0207 N.ar      1 <0>        -0.4813
      5 C4          1.2181   -0.6611   -0.0136 C.ar      1 <0>         0.1285
      6 C5          0.0021   -0.0041    0.0020 C.ar      1 <0>        -0.1698
      7 C6          1.2505   -2.1677   -0.0230 C.3       1 <0>        -0.0655
      8 C7          2.0769   -2.6526   -1.2158 C.3       1 <0>        -0.1106
      9 C8          2.1098   -4.1822   -1.2254 C.3       1 <0>         0.0576
     10 O1          2.8817   -4.6351   -2.3395 O.3       1 <0>        -0.3094
     11 C9          3.0114   -5.9794   -2.4948 C.ar      1 <0>         0.1302
     12 C10         2.4028   -6.8433   -1.5959 C.ar      1 <0>        -0.1823
     13 C11         2.5343   -8.2087   -1.7533 C.ar      1 <0>        -0.0898
     14 C12         3.2751   -8.7171   -2.8113 C.ar      1 <0>         0.0920
     15 C13         3.8835   -7.8524   -3.7108 C.ar      1 <0>        -0.0894
     16 C14         3.7475   -6.4871   -3.5555 C.ar      1 <0>        -0.1250
     17 N2          3.4094  -10.1051   -2.9714 N.pl3     1 <0>        -0.4067
     18 C15         4.1104  -10.7473   -3.9589 C.2       1 <0>        -0.0557
     19 C16         3.9760  -12.0687   -3.7364 C.2       1 <0>        -0.0218
     20 N3          3.2150  -12.2340   -2.6445 N.2       1 <0>        -0.4852
     21 C17         2.8743  -11.0651   -2.1739 C.2       1 <0>         0.1850
     22 H1         -0.9518    1.9222    0.0259 H         1 <0>         0.1356
     23 H2          1.2167    3.1384    0.0069 H         1 <0>         0.1360
     24 H3          3.3170    1.8532   -0.0197 H         1 <0>         0.1574
     25 H4         -0.9217   -0.5635    0.0082 H         1 <0>         0.1351
     26 H5          1.7018   -2.5272    0.9018 H         1 <0>         0.0873
     27 H6          0.2340   -2.5525   -0.1048 H         1 <0>         0.0830
     28 H7          1.6257   -2.2931   -2.1406 H         1 <0>         0.0735
     29 H8          3.0934   -2.2678   -1.1340 H         1 <0>         0.0875
     30 H9          2.5611   -4.5417   -0.3006 H         1 <0>         0.0667
     31 H10         1.0933   -4.5670   -1.3072 H         1 <0>         0.0650
     32 H11         1.8264   -6.4477   -0.7727 H         1 <0>         0.1398
     33 H12         2.0611   -8.8812   -1.0530 H         1 <0>         0.1356
     34 H13         4.4603   -8.2475   -4.5340 H         1 <0>         0.1387
     35 H14         4.2175   -5.8144   -4.2576 H         1 <0>         0.1429
     36 H15         4.6637  -10.2827   -4.7617 H         1 <0>         0.1780
     37 H16         4.4062  -12.8586   -4.3342 H         1 <0>         0.1753
     38 H17         2.2664  -10.8907   -1.2984 H         1 <0>         0.2075
@<TRIPOS>BOND
     1    1    6 ar
     2    1    2 ar
     3    1   22 1
     4    2    3 ar
     5    2   23 1
     6    3    4 ar
     7    3   24 1
     8    4    5 ar
     9    5    6 ar
    10    5    7 1
    11    6   25 1
    12    7    8 1
    13    7   26 1
    14    7   27 1
    15    8    9 1
    16    8   28 1
    17    8   29 1
    18    9   10 1
    19    9   30 1
    20    9   31 1
    21   10   11 1
    22   11   16 ar
    23   11   12 ar
    24   12   13 ar
    25   12   32 1
    26   13   14 ar
    27   13   33 1
    28   14   15 ar
    29   14   17 1
    30   15   16 ar
    31   15   34 1
    32   16   35 1
    33   17   21 1
    34   17   18 1
    35   18   19 2
    36   18   36 1
    37   19   20 1
    38   19   37 1
    39   20   21 2
    40   21   38 1
@<TRIPOS>MOLECULE
CHEMBL467187
   39    41     0     0     0
SMALL
USER_CHARGES

@<TRIPOS>ATOM
      1 C1         -0.0187    1.5258    0.0104 C.3       1 <0>        -0.1366
      2 C2          0.0021   -0.0041    0.0020 C.3       1 <0>         0.0778
      3 C3         -1.4138   -0.5309    0.0356 C.2       1 <0>         0.4683
      4 O1         -2.3205    0.0917   -0.4767 O.2       1 <0>        -0.4988
      5 N1         -1.6464   -1.7147    0.6506 N.am      1 <0>        -0.5559
      6 N2         -0.5720   -2.4003    1.2350 N.2       1 <0>        -0.2888
      7 C4          0.5408   -1.7904    1.4698 C.2       1 <0>         0.2885
      8 O2          0.6937   -0.4817    1.1603 O.3       1 <0>        -0.3353
      9 C5          1.6846   -2.5450    2.0970 C.3       1 <0>        -0.0071
     10 C6          1.2691   -3.9723    2.3444 C.ar      1 <0>        -0.0974
     11 C7          0.7727   -4.3430    3.5808 C.ar      1 <0>        -0.0495
     12 C8          0.3906   -5.6512    3.8116 C.ar      1 <0>        -0.1062
     13 C9          0.5037   -6.5941    2.8060 C.ar      1 <0>        -0.0137
     14 C10         1.0013   -6.2261    1.5642 C.ar      1 <0>         0.0455
     15 C11         1.3794   -4.9093    1.3330 C.ar      1 <0>         0.1322
     16 F1          1.8588   -4.5457    0.1234 F         1 <0>        -0.1152
     17 O3          1.1135   -7.1509    0.5740 O.3       1 <0>        -0.2294
     18 C12         0.0543   -7.3252   -0.2592 C.ar      1 <0>         0.1334
     19 C13         0.1222   -8.2605   -1.2786 C.ar      1 <0>        -0.0882
     20 C14        -0.9675   -8.4366   -2.1322 C.ar      1 <0>         0.0283
     21 C15        -2.1198   -7.6684   -1.9530 C.ar      1 <0>        -0.0932
     22 C16        -2.1770   -6.7387   -0.9336 C.ar      1 <0>         0.0029
     23 C17        -1.0972   -6.5697   -0.0846 C.ar      1 <0>        -0.1560
     24 Cl1        -3.6100   -5.7843   -0.7119 Cl        1 <0>        -0.0442
     25 C18        -0.9042   -9.4014   -3.1885 C.1       1 <0>         0.2509
     26 N3         -0.8540  -10.1668   -4.0265 N.1       1 <0>        -0.3906
     27 Cl2         0.0239   -8.2368    3.0976 Cl        1 <0>        -0.0281
     28 H1          1.0039    1.9031    0.0027 H         1 <0>         0.0847
     29 H2         -0.5459    1.8868   -0.8726 H         1 <0>         0.0959
     30 H3         -0.5289    1.8773    0.9072 H         1 <0>         0.0727
     31 H4          0.5061   -0.3583   -0.8972 H         1 <0>         0.1106
     32 H5         -2.5431   -2.0828    0.6865 H         1 <0>         0.4364
     33 H6          2.5430   -2.5277    1.4254 H         1 <0>         0.1203
     34 H7          1.9540   -2.0758    3.0432 H         1 <0>         0.1282
     35 H8          0.6837   -3.6088    4.3679 H         1 <0>         0.1536
     36 H9          0.0037   -5.9375    4.7783 H         1 <0>         0.1540
     37 H10         1.0161   -8.8516   -1.4126 H         1 <0>         0.1534
     38 H11        -2.9655   -7.8010   -2.6115 H         1 <0>         0.1497
     39 H12        -1.1490   -5.8445    0.7140 H         1 <0>         0.1468
@<TRIPOS>BOND
     1    1    2 1
     2    1   28 1
     3    1   29 1
     4    1   30 1
     5    2    8 1
     6    2    3 1
     7    2   31 1
     8    3    4 2
     9    3    5 am
    10    5    6 1
    11    5   32 1
    12    6    7 2
    13    7    8 1
    14    7    9 1
    15    9   10 1
    16    9   33 1
    17    9   34 1
    18   10   15 ar
    19   10   11 ar
    20   11   12 ar
    21   11   35 1
    22   12   13 ar
    23   12   36 1
    24   13   14 ar
    25   13   27 1
    26   14   15 ar
    27   14   17 1
    28   15   16 1
    29   17   18 1
    30   18   23 ar
    31   18   19 ar
    32   19   20 ar
    33   19   37 1
    34   20   21 ar
    35   20   25 1
    36   21   22 ar
    37   21   38 1
    38   22   23 ar
    39   22   24 1
    40   23   39 1
    41   25   26 3
@<TRIPOS>MOLECULE
CHEMBL467187
   38    40     0     0     0
SMALL
USER_CHARGES

@<TRIPOS>ATOM
      1 C1         -0.0187    1.5258    0.0104 C.3       1 <0>        -0.1126
      2 C2          0.0021   -0.0041    0.0020 C.3       1 <0>         0.0553
      3 C3         -1.4129   -0.5298    0.0316 C.2       1 <0>         0.3466
      4 O1         -2.4159    0.1699   -0.5441 O.3       1 <0>        -0.6911
      5 N1         -1.6536   -1.6663    0.6188 N.2       1 <0>        -0.4697
      6 N2         -0.6026   -2.3777    1.2123 N.2       1 <0>        -0.3003
      7 C4          0.5260   -1.7879    1.4677 C.2       1 <0>         0.1558
      8 O2          0.6939   -0.4812    1.1608 O.3       1 <0>        -0.3545
      9 C5          1.6505   -2.5607    2.1075 C.3       1 <0>         0.0049
     10 C6          1.2111   -3.9823    2.3458 C.ar      1 <0>        -0.0666
     11 C7          0.6934   -4.3487    3.5748 C.ar      1 <0>        -0.0523
     12 C8          0.2893   -5.6518    3.7971 C.ar      1 <0>        -0.1083
     13 C9          0.4015   -6.5937    2.7906 C.ar      1 <0>        -0.0202
     14 C10         0.9204   -6.2300    1.5563 C.ar      1 <0>         0.0404
     15 C11         1.3206   -4.9184    1.3335 C.ar      1 <0>         0.1336
     16 F1          1.8209   -4.5588    0.1311 F         1 <0>        -0.1162
     17 O3          1.0319   -7.1540    0.5651 O.3       1 <0>        -0.2321
     18 C12        -0.0189   -7.3107   -0.2821 C.ar      1 <0>         0.1327
     19 C13         0.0485   -8.2444   -1.3030 C.ar      1 <0>        -0.0936
     20 C14        -1.0325   -8.4024   -2.1710 C.ar      1 <0>         0.0154
     21 C15        -2.1758   -7.6178   -2.0046 C.ar      1 <0>        -0.0964
     22 C16        -2.2325   -6.6899   -0.9836 C.ar      1 <0>         0.0048
     23 C17        -1.1614   -6.5388   -0.1203 C.ar      1 <0>        -0.1460
     24 Cl1        -3.6542   -5.7152   -0.7778 Cl        1 <0>        -0.0310
     25 C18        -0.9697   -9.3654   -3.2290 C.1       1 <0>         0.2626
     26 N3         -0.9199  -10.1294   -4.0683 N.1       1 <0>        -0.4081
     27 Cl2        -0.1059   -8.2300    3.0717 Cl        1 <0>        -0.0441
     28 H1          1.0039    1.9031    0.0027 H         1 <0>         0.0508
     29 H2         -0.5459    1.8868   -0.8726 H         1 <0>         0.0807
     30 H3         -0.5289    1.8773    0.9072 H         1 <0>         0.0574
     31 H4          0.5072   -0.3578   -0.8968 H         1 <0>         0.0616
     32 H5          2.5176   -2.5542    1.4472 H         1 <0>         0.0939
     33 H6          1.9144   -2.0977    3.0584 H         1 <0>         0.1000
     34 H7          0.6049   -3.6153    4.3626 H         1 <0>         0.1495
     35 H8         -0.1143   -5.9347    4.7581 H         1 <0>         0.1485
     36 H9          0.9353   -8.8481   -1.4271 H         1 <0>         0.1489
     37 H10        -3.0148   -7.7364   -2.6743 H         1 <0>         0.1466
     38 H11        -1.2129   -5.8149    0.6795 H         1 <0>         0.1530
@<TRIPOS>BOND
     1    1    2 1
     2    1   28 1
     3    1   29 1
     4    1   30 1
     5    2    8 1
     6    2    3 1
     7    2   31 1
     8    3    4 1
     9    3    5 2
    10    5    6 1
    11    6    7 2
    12    7    8 1
    13    7    9 1
    14    9   10 1
    15    9   32 1
    16    9   33 1
    17   10   15 ar
    18   10   11 ar
    19   11   12 ar
    20   11   34 1
    21   12   13 ar
    22   12   35 1
    23   13   14 ar
    24   13   27 1
    25   14   15 ar
    26   14   17 1
    27   15   16 1
    28   17   18 1
    29   18   23 ar
    30   18   19 ar
    31   19   20 ar
    32   19   36 1
    33   20   21 ar
    34   20   25 1
    35   21   22 ar
    36   21   37 1
    37   22   23 ar
    38   22   24 1
    39   23   38 1
    40   25   26 3
@<TRIPOS>MOLECULE
CHEMBL467187
   39    41     0     0     0
SMALL
USER_CHARGES

@<TRIPOS>ATOM
      1 C1         -0.0187    1.5258    0.0104 C.3       1 <0>        -0.1791
      2 C2          0.0021   -0.0041    0.0020 C.3       1 <0>         0.0788
      3 C3          0.7286   -0.4949   -1.2287 C.2       1 <0>         0.4709
      4 O1          0.1296   -0.6964   -2.2645 O.2       1 <0>        -0.5026
      5 N1          2.0640   -0.7041   -1.1481 N.am      1 <0>        -0.5543
      6 N2          2.7178   -0.4645    0.0690 N.2       1 <0>        -0.2882
      7 C4          2.0417   -0.3605    1.1632 C.2       1 <0>         0.2883
      8 O2          0.6937   -0.4817    1.1603 O.3       1 <0>        -0.3330
      9 C5          2.7625   -0.1012    2.4610 C.3       1 <0>        -0.0079
     10 C6          4.2443   -0.0078    2.2028 C.ar      1 <0>        -0.0972
     11 C7          5.0443   -1.1252    2.3572 C.ar      1 <0>        -0.0496
     12 C8          6.4038   -1.0434    2.1212 C.ar      1 <0>        -0.1062
     13 C9          6.9685    0.1569    1.7297 C.ar      1 <0>        -0.0138
     14 C10         6.1692    1.2802    1.5737 C.ar      1 <0>         0.0455
     15 C11         4.8021    1.1941    1.8060 C.ar      1 <0>         0.1322
     16 F1          4.0194    2.2841    1.6494 F         1 <0>        -0.1153
     17 O3          6.7217    2.4614    1.1889 O.3       1 <0>        -0.2294
     18 C12         6.7987    2.7262   -0.1416 C.ar      1 <0>         0.1335
     19 C13         7.3592    3.9149   -0.5794 C.ar      1 <0>        -0.0883
     20 C14         7.4366    4.1833   -1.9465 C.ar      1 <0>         0.0283
     21 C15         6.9483    3.2514   -2.8648 C.ar      1 <0>        -0.0932
     22 C16         6.3915    2.0695   -2.4177 C.ar      1 <0>         0.0029
     23 C17         6.3209    1.8028   -1.0615 C.ar      1 <0>        -0.1560
     24 Cl1         5.7848    0.9119   -3.5602 Cl        1 <0>        -0.0441
     25 C18         8.0143    5.4103   -2.4062 C.1       1 <0>         0.2508
     26 N3          8.4726    6.3837   -2.7709 N.1       1 <0>        -0.3905
     27 Cl2         8.6762    0.2581    1.4343 Cl        1 <0>        -0.0282
     28 H1          1.0039    1.9031    0.0027 H         1 <0>         0.0660
     29 H2         -0.5459    1.8868   -0.8726 H         1 <0>         0.0892
     30 H3         -0.5289    1.8773    0.9072 H         1 <0>         0.0913
     31 H4         -1.0196   -0.3839    0.0032 H         1 <0>         0.1572
     32 H5          2.5609   -1.0154   -1.9208 H         1 <0>         0.4365
     33 H6          2.4090    0.8355    2.8921 H         1 <0>         0.1200
     34 H7          2.5655   -0.9179    3.1555 H         1 <0>         0.1280
     35 H8          4.6060   -2.0636    2.6632 H         1 <0>         0.1537
     36 H9          7.0259   -1.9178    2.2431 H         1 <0>         0.1540
     37 H10         7.7349    4.6321    0.1354 H         1 <0>         0.1533
     38 H11         7.0057    3.4550   -3.9238 H         1 <0>         0.1497
     39 H12         5.8887    0.8748   -0.7174 H         1 <0>         0.1468
@<TRIPOS>BOND
     1    1    2 1
     2    1   28 1
     3    1   29 1
     4    1   30 1
     5    2    8 1
     6    2    3 1
     7    2   31 1
     8    3    4 2
     9    3    5 am
    10    5    6 1
    11    5   32 1
    12    6    7 2
    13    7    8 1
    14    7    9 1
    15    9   10 1
    16    9   33 1
    17    9   34 1
    18   10   15 ar
    19   10   11 ar
    20   11   12 ar
    21   11   35 1
    22   12   13 ar
    23   12   36 1
    24   13   14 ar
    25   13   27 1
    26   14   15 ar
    27   14   17 1
    28   15   16 1
    29   17   18 1
    30   18   23 ar
    31   18   19 ar
    32   19   20 ar
    33   19   37 1
    34   20   21 ar
    35   20   25 1
    36   21   22 ar
    37   21   38 1
    38   22   23 ar
    39   22   24 1
    40   23   39 1
    41   25   26 3
@<TRIPOS>MOLECULE
CHEMBL467187
   38    40     0     0     0
SMALL
USER_CHARGES

@<TRIPOS>ATOM
      1 C1         -0.0187    1.5258    0.0104 C.3       1 <0>        -0.1593
      2 C2          0.0021   -0.0041    0.0020 C.3       1 <0>         0.0548
      3 C3          0.7247   -0.4939   -1.2298 C.2       1 <0>         0.3487
      4 O1          0.0479   -0.7139   -2.3789 O.3       1 <0>        -0.6966
      5 N1          2.0084   -0.7009   -1.1701 N.2       1 <0>        -0.4672
      6 N2          2.6941   -0.4697    0.0296 N.2       1 <0>        -0.2998
      7 C4          2.0417   -0.3666    1.1479 C.2       1 <0>         0.1565
      8 O2          0.6939   -0.4812    1.1608 O.3       1 <0>        -0.3523
      9 C5          2.7878   -0.1193    2.4337 C.3       1 <0>         0.0039
     10 C6          4.2651   -0.0328    2.1486 C.ar      1 <0>        -0.0664
     11 C7          5.0613   -1.1557    2.2816 C.ar      1 <0>        -0.0525
     12 C8          6.4167   -1.0802    2.0210 C.ar      1 <0>        -0.1082
     13 C9          6.9811    0.1192    1.6263 C.ar      1 <0>        -0.0205
     14 C10         6.1855    1.2479    1.4917 C.ar      1 <0>         0.0404
     15 C11         4.8225    1.1682    1.7487 C.ar      1 <0>         0.1336
     16 F1          4.0434    2.2636    1.6132 F         1 <0>        -0.1162
     17 O3          6.7377    2.4282    1.1038 O.3       1 <0>        -0.2322
     18 C12         6.7917    2.7007   -0.2264 C.ar      1 <0>         0.1327
     19 C13         7.3510    3.8888   -0.6673 C.ar      1 <0>        -0.0936
     20 C14         7.4047    4.1650   -2.0340 C.ar      1 <0>         0.0155
     21 C15         6.8940    3.2414   -2.9486 C.ar      1 <0>        -0.0964
     22 C16         6.3387    2.0601   -2.4983 C.ar      1 <0>         0.0048
     23 C17         6.2916    1.7856   -1.1427 C.ar      1 <0>        -0.1459
     24 Cl1         5.7043    0.9128   -3.6363 Cl        1 <0>        -0.0309
     25 C18         7.9809    5.3914   -2.4970 C.1       1 <0>         0.2625
     26 N3          8.4381    6.3644   -2.8644 N.1       1 <0>        -0.4080
     27 Cl2         8.6836    0.2124    1.2999 Cl        1 <0>        -0.0441
     28 H1          1.0039    1.9031    0.0027 H         1 <0>         0.0528
     29 H2         -0.5459    1.8868   -0.8726 H         1 <0>         0.0708
     30 H3         -0.5289    1.8773    0.9072 H         1 <0>         0.0588
     31 H4         -1.0197   -0.3835    0.0043 H         1 <0>         0.1152
     32 H5          2.4478    0.8168    2.8767 H         1 <0>         0.0935
     33 H6          2.5989   -0.9391    3.1268 H         1 <0>         0.0997
     34 H7          4.6232   -2.0934    2.5900 H         1 <0>         0.1495
     35 H8          7.0358   -1.9589    2.1261 H         1 <0>         0.1484
     36 H9          7.7440    4.5994    0.0447 H         1 <0>         0.1488
     37 H10         6.9331    3.4512   -4.0073 H         1 <0>         0.1466
     38 H11         5.8605    0.8580   -0.7962 H         1 <0>         0.1530
@<TRIPOS>BOND
     1    1    2 1
     2    1   28 1
     3    1   29 1
     4    1   30 1
     5    2    8 1
     6    2    3 1
     7    2   31 1
     8    3    4 1
     9    3    5 2
    10    5    6 1
    11    6    7 2
    12    7    8 1
    13    7    9 1
    14    9   10 1
    15    9   32 1
    16    9   33 1
    17   10   15 ar
    18   10   11 ar
    19   11   12 ar
    20   11   34 1
    21   12   13 ar
    22   12   35 1
    23   13   14 ar
    24   13   27 1
    25   14   15 ar
    26   14   17 1
    27   15   16 1
    28   17   18 1
    29   18   23 ar
    30   18   19 ar
    31   19   20 ar
    32   19   36 1
    33   20   21 ar
    34   20   25 1
    35   21   22 ar
    36   21   37 1
    37   22   23 ar
    38   22   24 1
    39   23   38 1
    40   25   26 3
@<TRIPOS>MOLECULE
CHEMBL427267
   55    59     0     0     0
SMALL
USER_CHARGES

@<TRIPOS>ATOM
      1 C1          0.0707    0.7622   -2.0934 C.3       1 <0>        -0.1178
      2 C2         -0.6370   -0.5097   -1.7030 C.ar      1 <0>        -0.0636
      3 C3         -1.5867   -1.0583   -2.5455 C.ar      1 <0>        -0.1302
      4 C4         -2.2385   -2.2249   -2.1908 C.ar      1 <0>        -0.0950
      5 C5         -1.9429   -2.8461   -0.9929 C.ar      1 <0>        -0.1249
      6 C6         -0.9897   -2.2981   -0.1451 C.ar      1 <0>         0.1562
      7 C7         -0.3326   -1.1291   -0.5070 C.ar      1 <0>        -0.1444
      8 N1         -0.6882   -2.9247    1.0693 N.am      1 <0>        -0.6762
      9 C8         -0.7376   -4.2681    1.1648 C.2       1 <0>         0.7046
     10 O1         -0.9583   -4.9403    0.1759 O.2       1 <0>        -0.5496
     11 N2         -0.5424   -4.8666    2.3566 N.am      1 <0>        -0.6853
     12 C9         -0.4915   -6.2629    2.4385 C.ar      1 <0>         0.1934
     13 C10         0.0467   -6.9999    1.3906 C.ar      1 <0>        -0.1229
     14 C11         0.0977   -8.3756    1.4685 C.ar      1 <0>        -0.0858
     15 C12        -0.3911   -9.0273    2.6004 C.ar      1 <0>        -0.0986
     16 C13        -0.9302   -8.2851    3.6508 C.ar      1 <0>        -0.0673
     17 C14        -0.9739   -6.9093    3.5699 C.ar      1 <0>        -0.1420
     18 C15        -0.3380  -10.5061    2.6868 C.2       1 <0>        -0.0438
     19 C16        -1.4673  -11.2252    2.8873 C.2       1 <0>        -0.1303
     20 S1         -0.8870  -12.9108    2.9137 S.3       1 <0>         0.2114
     21 C17         0.8405  -12.6148    2.6576 C.ar      1 <0>        -0.0563
     22 C18         0.9327  -11.2132    2.5510 C.ar      1 <0>        -0.1346
     23 C19         2.2347  -10.6920    2.3336 C.ar      1 <0>         0.4999
     24 N3          3.2800  -11.4869    2.2353 N.ar      1 <0>        -0.4957
     25 C20         3.2035  -12.8037    2.3288 C.ar      1 <0>         0.1285
     26 C21         1.9752  -13.4172    2.5528 C.ar      1 <0>        -0.0058
     27 C22         1.8730  -14.8923    2.6597 C.ar      1 <0>        -0.1346
     28 C23         2.4691  -15.7173    1.7008 C.ar      1 <0>        -0.0477
     29 C24         2.3448  -17.0880    1.8459 C.ar      1 <0>        -0.1636
     30 C25         1.6414  -17.5934    2.9244 C.ar      1 <0>         0.1275
     31 N4          1.0893  -16.7902    3.8131 N.ar      1 <0>        -0.4722
     32 C26         1.1860  -15.4797    3.7207 C.ar      1 <0>         0.1314
     33 N5          2.4094   -9.3204    2.2222 N.pl3     1 <0>        -0.8237
     34 H1          0.9706    0.5186   -2.6582 H         1 <0>         0.0735
     35 H2         -0.5908    1.3718   -2.7091 H         1 <0>         0.0712
     36 H3          0.3441    1.3162   -1.1954 H         1 <0>         0.0679
     37 H4         -1.8199   -0.5743   -3.4824 H         1 <0>         0.1264
     38 H5         -2.9799   -2.6507   -2.8507 H         1 <0>         0.1281
     39 H6         -2.4529   -3.7569   -0.7160 H         1 <0>         0.1338
     40 H7          0.4125   -0.7028    0.1483 H         1 <0>         0.1256
     41 H8         -0.4437   -2.3921    1.8423 H         1 <0>         0.4104
     42 H9         -0.4372   -4.3296    3.1575 H         1 <0>         0.4139
     43 H10         0.4250   -6.4947    0.5142 H         1 <0>         0.1468
     44 H11         0.5154   -8.9480    0.6534 H         1 <0>         0.1297
     45 H12        -1.3096   -8.7872    4.5285 H         1 <0>         0.1379
     46 H13        -1.3873   -6.3338    4.3850 H         1 <0>         0.1390
     47 H14        -2.4784  -10.8640    3.0038 H         1 <0>         0.2140
     48 H15         4.0973  -13.4034    2.2394 H         1 <0>         0.2140
     49 H16         3.0124  -15.2955    0.8682 H         1 <0>         0.1427
     50 H17         2.7918  -17.7559    1.1244 H         1 <0>         0.1499
     51 H18         1.5425  -18.6625    3.0405 H         1 <0>         0.1690
     52 H19         0.7248  -14.8547    4.4711 H         1 <0>         0.1577
     53 H20         1.7923   -8.7156    2.6630 H         1 <0>         0.4400
     54 H21         3.1486   -8.9661    1.7036 H         1 <0>         0.4217
     55 H22         4.1506  -11.0860    2.0863 H         1 <0>         0.4455
@<TRIPOS>BOND
     1    1    2 1
     2    1   34 1
     3    1   35 1
     4    1   36 1
     5    2    7 ar
     6    2    3 ar
     7    3    4 ar
     8    3   37 1
     9    4    5 ar
    10    4   38 1
    11    5    6 ar
    12    5   39 1
    13    6    7 ar
    14    6    8 1
    15    7   40 1
    16    8    9 am
    17    8   41 1
    18    9   10 2
    19    9   11 am
    20   11   12 1
    21   11   42 1
    22   12   17 ar
    23   12   13 ar
    24   13   14 ar
    25   13   43 1
    26   14   15 ar
    27   14   44 1
    28   15   16 ar
    29   15   18 1
    30   16   17 ar
    31   16   45 1
    32   17   46 1
    33   18   22 1
    34   18   19 2
    35   19   20 1
    36   19   47 1
    37   20   21 1
    38   21   26 ar
    39   21   22 ar
    40   22   23 ar
    41   23   24 ar
    42   23   33 1
    43   24   25 ar
    44   24   55 1
    45   25   26 ar
    46   25   48 1
    47   26   27 1
    48   27   32 ar
    49   27   28 ar
    50   28   29 ar
    51   28   49 1
    52   29   30 ar
    53   29   50 1
    54   30   31 ar
    55   30   51 1
    56   31   32 ar
    57   32   52 1
    58   33   53 1
    59   33   54 1
@<TRIPOS>MOLECULE
CHEMBL427267
   54    58     0     0     0
SMALL
USER_CHARGES

@<TRIPOS>ATOM
      1 C1          0.0692    0.7625   -2.0920 C.3       1 <0>        -0.1156
      2 C2         -0.6384   -0.5094   -1.7013 C.ar      1 <0>        -0.0661
      3 C3         -1.5885   -1.0580   -2.5435 C.ar      1 <0>        -0.1344
      4 C4         -2.2402   -2.2245   -2.1885 C.ar      1 <0>        -0.0952
      5 C5         -1.9441   -2.8458   -0.9908 C.ar      1 <0>        -0.1251
      6 C6         -0.9904   -2.2978   -0.1433 C.ar      1 <0>         0.1634
      7 C7         -0.3335   -1.1289   -0.5055 C.ar      1 <0>        -0.1468
      8 N1         -0.6885   -2.9245    1.0708 N.am      1 <0>        -0.6807
      9 C8         -0.7379   -4.2680    1.1663 C.2       1 <0>         0.7037
     10 O1         -0.9590   -4.9401    0.1775 O.2       1 <0>        -0.5495
     11 N2         -0.5422   -4.8665    2.3580 N.am      1 <0>        -0.6824
     12 C9         -0.4913   -6.2629    2.4398 C.ar      1 <0>         0.1727
     13 C10         0.0464   -6.9998    1.3917 C.ar      1 <0>        -0.1223
     14 C11         0.0973   -8.3755    1.4694 C.ar      1 <0>        -0.0737
     15 C12        -0.3909   -9.0272    2.6016 C.ar      1 <0>        -0.0672
     16 C13        -0.9295   -8.2851    3.6522 C.ar      1 <0>        -0.0785
     17 C14        -0.9733   -6.9092    3.5714 C.ar      1 <0>        -0.1452
     18 C15        -0.3379  -10.5060    2.6878 C.2       1 <0>        -0.0426
     19 C16        -1.4671  -11.2251    2.8887 C.2       1 <0>        -0.1599
     20 S1         -0.8869  -12.9107    2.9148 S.3       1 <0>         0.0761
     21 C17         0.8405  -12.6148    2.6580 C.ar      1 <0>        -0.0404
     22 C18         0.9327  -11.2132    2.5515 C.ar      1 <0>        -0.1809
     23 C19         2.2347  -10.6920    2.3336 C.ar      1 <0>         0.4619
     24 N3          3.2800  -11.4870    2.2348 N.ar      1 <0>        -0.5449
     25 C20         3.2035  -12.8037    2.3287 C.ar      1 <0>         0.1838
     26 C21         1.9752  -13.4172    2.5527 C.ar      1 <0>        -0.1139
     27 C22         1.8730  -14.8923    2.6596 C.ar      1 <0>        -0.0858
     28 C23         2.4687  -15.7172    1.7005 C.ar      1 <0>        -0.0635
     29 C24         2.3444  -17.0879    1.8455 C.ar      1 <0>        -0.1671
     30 C25         1.6414  -17.5934    2.9243 C.ar      1 <0>         0.0982
     31 N4          1.0897  -16.7902    3.8132 N.ar      1 <0>        -0.4785
     32 C26         1.1864  -15.4797    3.7208 C.ar      1 <0>         0.1129
     33 N5          2.4094   -9.3204    2.2222 N.pl3     1 <0>        -0.8485
     34 H1          0.9688    0.5189   -2.6572 H         1 <0>         0.0724
     35 H2         -0.5925    1.3721   -2.7073 H         1 <0>         0.0691
     36 H3          0.3430    1.3164   -1.1941 H         1 <0>         0.0666
     37 H4         -1.8220   -0.5739   -3.4803 H         1 <0>         0.1240
     38 H5         -2.9819   -2.6502   -2.8481 H         1 <0>         0.1268
     39 H6         -2.4540   -3.7566   -0.7137 H         1 <0>         0.1351
     40 H7          0.4119   -0.7026    0.1495 H         1 <0>         0.1248
     41 H8         -0.4436   -2.3920    1.8437 H         1 <0>         0.4088
     42 H9         -0.4366   -4.3296    3.1589 H         1 <0>         0.4099
     43 H10         0.4243   -6.4946    0.5151 H         1 <0>         0.1406
     44 H11         0.5147   -8.9479    0.6542 H         1 <0>         0.1302
     45 H12        -1.3086   -8.7872    4.5300 H         1 <0>         0.1321
     46 H13        -1.3863   -6.3337    4.3867 H         1 <0>         0.1310
     47 H14        -2.4781  -10.8639    3.0057 H         1 <0>         0.1930
     48 H15         4.0973  -13.4034    2.2392 H         1 <0>         0.1684
     49 H16         3.0116  -15.2955    0.8676 H         1 <0>         0.1373
     50 H17         2.7911  -17.7558    1.1238 H         1 <0>         0.1391
     51 H18         1.5426  -18.6626    3.0404 H         1 <0>         0.1579
     52 H19         0.7255  -14.8548    4.4715 H         1 <0>         0.1534
     53 H20         1.7923   -8.7156    2.6630 H         1 <0>         0.4115
     54 H21         3.1486   -8.9661    1.7036 H         1 <0>         0.4041
@<TRIPOS>BOND
     1    1    2 1
     2    1   34 1
     3    1   35 1
     4    1   36 1
     5    2    7 ar
     6    2    3 ar
     7    3    4 ar
     8    3   37 1
     9    4    5 ar
    10    4   38 1
    11    5    6 ar
    12    5   39 1
    13    6    7 ar
    14    6    8 1
    15    7   40 1
    16    8    9 am
    17    8   41 1
    18    9   10 2
    19    9   11 am
    20   11   12 1
    21   11   42 1
    22   12   17 ar
    23   12   13 ar
    24   13   14 ar
    25   13   43 1
    26   14   15 ar
    27   14   44 1
    28   15   16 ar
    29   15   18 1
    30   16   17 ar
    31   16   45 1
    32   17   46 1
    33   18   22 1
    34   18   19 2
    35   19   20 1
    36   19   47 1
    37   20   21 1
    38   21   26 ar
    39   21   22 ar
    40   22   23 ar
    41   23   24 ar
    42   23   33 1
    43   24   25 ar
    44   25   26 ar
    45   25   48 1
    46   26   27 1
    47   27   32 ar
    48   27   28 ar
    49   28   29 ar
    50   28   49 1
    51   29   30 ar
    52   29   50 1
    53   30   31 ar
    54   30   51 1
    55   31   32 ar
    56   32   52 1
    57   33   53 1
    58   33   54 1
@<TRIPOS>MOLECULE
CHEMBL283255
   67    72     0     0     0
SMALL
USER_CHARGES

@<TRIPOS>ATOM
      1 C1          1.7077    0.7576   -2.1495 C.ar      1 <0>        -0.0688
      2 C2          3.0143    1.1472   -1.9132 C.ar      1 <0>        -0.1103
      3 C3          3.8642    0.3289   -1.1746 C.ar      1 <0>        -0.0528
      4 C4          3.3844   -0.8944   -0.6719 C.ar      1 <0>        -0.0597
      5 C5          2.0582   -1.2783   -0.9180 C.ar      1 <0>         0.1516
      6 C6          1.2296   -0.4395   -1.6604 C.ar      1 <0>        -0.1203
      7 N1          1.8432   -2.5064   -0.3222 N.pl3     1 <0>        -0.4822
      8 C7          2.9937   -2.9371    0.3077 C.ar      1 <0>         0.0407
      9 C8          3.9913   -1.9702    0.1231 C.ar      1 <0>         0.1666
     10 N2          5.1998   -2.1734    0.6485 N.ar      1 <0>        -0.4153
     11 C9          5.4570   -3.2669    1.3326 C.ar      1 <0>         0.2780
     12 N3          4.5482   -4.2041    1.5310 N.ar      1 <0>        -0.4896
     13 C10         3.3178   -4.0849    1.0449 C.ar      1 <0>         0.3873
     14 N4          2.3734   -5.0762    1.2610 N.pl3     1 <0>        -0.6601
     15 C11         1.5205   -5.0601    2.4596 C.3       1 <0>         0.1181
     16 C12         0.0620   -5.2255    2.0202 C.3       1 <0>        -0.0407
     17 N5         -0.0669   -6.4373    1.2010 N.4       1 <0>        -0.3790
     18 C13         0.7047   -6.2869   -0.0392 C.3       1 <0>        -0.0709
     19 C14         2.1912   -6.1709    0.2953 C.3       1 <0>         0.1163
     20 C15        -1.4818   -6.6555    0.8719 C.3       1 <0>        -0.0117
     21 C16        -1.6331   -7.9823    0.1252 C.3       1 <0>        -0.0999
     22 C17        -3.0846   -8.2061   -0.2124 C.ar      1 <0>        -0.0896
     23 C18        -3.9058   -8.8727    0.6779 C.ar      1 <0>        -0.0881
     24 C19        -5.2374   -9.0792    0.3705 C.ar      1 <0>        -0.1193
     25 C20        -5.7502   -8.6180   -0.8296 C.ar      1 <0>         0.0861
     26 C21        -4.9268   -7.9492   -1.7222 C.ar      1 <0>         0.0760
     27 C22        -3.5948   -7.7398   -1.4093 C.ar      1 <0>        -0.1168
     28 F1         -5.4249   -7.4985   -2.8944 F         1 <0>        -0.1187
     29 F2         -7.0516   -8.8199   -1.1310 F         1 <0>        -0.1169
     30 C23         0.5779   -3.2442   -0.3540 C.3       1 <0>         0.1282
     31 C24         0.2600   -3.6352   -1.7742 C.ar      1 <0>        -0.0906
     32 C25        -0.7104   -2.9578   -2.4966 C.ar      1 <0>        -0.1524
     33 C26        -0.9749   -3.3447   -3.7968 C.ar      1 <0>         0.1186
     34 N6         -0.3170   -4.3448   -4.3499 N.ar      1 <0>        -0.4634
     35 C27         0.6120   -5.0114   -3.6931 C.ar      1 <0>         0.1134
     36 C28         0.9349   -4.6773   -2.3915 C.ar      1 <0>        -0.1794
     37 C29         5.2590    0.7414   -0.9211 C.2       1 <0>         0.5431
     38 O1          5.9975    0.0232   -0.2754 O.2       1 <0>        -0.4887
     39 N7          5.7136    1.9141   -1.4054 N.am      1 <0>        -0.8508
     40 H1          1.0537    1.4007   -2.7197 H         1 <0>         0.1460
     41 H2          3.3754    2.0876   -2.3027 H         1 <0>         0.1412
     42 H3          0.2071   -0.7286   -1.8536 H         1 <0>         0.1314
     43 H4          6.4454   -3.4031    1.7460 H         1 <0>         0.2083
     44 H5          1.7999   -5.8818    3.1190 H         1 <0>         0.0956
     45 H6          1.6404   -4.1107    2.9816 H         1 <0>         0.1198
     46 H7         -0.5751   -5.3124    2.9003 H         1 <0>         0.1512
     47 H8         -0.2421   -4.3574    1.4354 H         1 <0>         0.1316
     48 H9          0.5411   -7.1558   -0.6767 H         1 <0>         0.1500
     49 H10         0.3811   -5.3867   -0.5617 H         1 <0>         0.1472
     50 H11         2.7542   -5.9556   -0.6129 H         1 <0>         0.1165
     51 H12         2.5394   -7.1067    0.7325 H         1 <0>         0.0970
     52 H13        -2.0679   -6.6866    1.7904 H         1 <0>         0.1410
     53 H14        -1.8379   -5.8409    0.2411 H         1 <0>         0.1301
     54 H15        -1.0470   -7.9512   -0.7933 H         1 <0>         0.0993
     55 H16        -1.2770   -8.7968    0.7559 H         1 <0>         0.1062
     56 H17        -3.5063   -9.2328    1.6145 H         1 <0>         0.1449
     57 H18        -5.8777   -9.6007    1.0665 H         1 <0>         0.1552
     58 H19        -2.9533   -7.2156   -2.1022 H         1 <0>         0.1461
     59 H20         0.6649   -4.1412    0.2591 H         1 <0>         0.1127
     60 H21        -0.2205   -2.6132    0.0365 H         1 <0>         0.0993
     61 H22        -1.2530   -2.1384   -2.0488 H         1 <0>         0.1429
     62 H23        -1.7293   -2.8222   -4.3662 H         1 <0>         0.1673
     63 H24         1.1295   -5.8252   -4.1793 H         1 <0>         0.1639
     64 H25         1.7002   -5.2238   -1.8604 H         1 <0>         0.1315
     65 H26         5.1244    2.4872   -1.9206 H         1 <0>         0.3993
     66 H27         6.6299    2.1851   -1.2388 H         1 <0>         0.4098
     67 H28         0.2816   -7.2303    1.7184 H         1 <0>         0.4270
@<TRIPOS>BOND
     1    1    6 ar
     2    1    2 ar
     3    1   40 1
     4    2    3 ar
     5    2   41 1
     6    3    4 ar
     7    3   37 1
     8    4    9 1
     9    4    5 ar
    10    5    6 ar
    11    5    7 1
    12    6   42 1
    13    7    8 1
    14    7   30 1
    15    8   13 ar
    16    8    9 ar
    17    9   10 ar
    18   10   11 ar
    19   11   12 ar
    20   11   43 1
    21   12   13 ar
    22   13   14 1
    23   14   19 1
    24   14   15 1
    25   15   16 1
    26   15   44 1
    27   15   45 1
    28   16   17 1
    29   16   46 1
    30   16   47 1
    31   17   18 1
    32   17   20 1
    33   17   67 1
    34   18   19 1
    35   18   48 1
    36   18   49 1
    37   19   50 1
    38   19   51 1
    39   20   21 1
    40   20   52 1
    41   20   53 1
    42   21   22 1
    43   21   54 1
    44   21   55 1
    45   22   27 ar
    46   22   23 ar
    47   23   24 ar
    48   23   56 1
    49   24   25 ar
    50   24   57 1
    51   25   26 ar
    52   25   29 1
    53   26   27 ar
    54   26   28 1
    55   27   58 1
    56   30   31 1
    57   30   59 1
    58   30   60 1
    59   31   36 ar
    60   31   32 ar
    61   32   33 ar
    62   32   61 1
    63   33   34 ar
    64   33   62 1
    65   34   35 ar
    66   35   36 ar
    67   35   63 1
    68   36   64 1
    69   37   38 2
    70   37   39 am
    71   39   65 1
    72   39   66 1
@<TRIPOS>MOLECULE
CHEMBL283255
   66    71     0     0     0
SMALL
USER_CHARGES

@<TRIPOS>ATOM
      1 C1          1.6989    0.7594   -2.1594 C.ar      1 <0>        -0.0763
      2 C2          3.0051    1.1497   -1.9222 C.ar      1 <0>        -0.1181
      3 C3          3.8534    0.3344   -1.1785 C.ar      1 <0>        -0.0576
      4 C4          3.3723   -0.8867   -0.6713 C.ar      1 <0>        -0.0594
      5 C5          2.0465   -1.2713   -0.9185 C.ar      1 <0>         0.1533
      6 C6          1.2195   -0.4355   -1.6661 C.ar      1 <0>        -0.1192
      7 N1          1.8300   -2.4968   -0.3177 N.pl3     1 <0>        -0.4753
      8 C7          2.9791   -2.9250    0.3163 C.ar      1 <0>         0.0383
      9 C8          3.9773   -1.9591    0.1295 C.ar      1 <0>         0.1534
     10 N2          5.1848   -2.1603    0.6581 N.ar      1 <0>        -0.4291
     11 C9          5.4404   -3.2509    1.3475 C.ar      1 <0>         0.2694
     12 N3          4.5309   -4.1870    1.5481 N.ar      1 <0>        -0.4975
     13 C10         3.3015   -4.0697    1.0591 C.ar      1 <0>         0.4131
     14 N4          2.3564   -5.0598    1.2777 N.pl3     1 <0>        -0.6623
     15 C11         1.4986   -5.0341    2.4722 C.3       1 <0>         0.1477
     16 C12         0.0399   -5.1840    2.0273 C.3       1 <0>         0.0258
     17 N5         -0.0931   -6.3856    1.1928 N.3       1 <0>        -0.5293
     18 C13         0.6990   -6.2694   -0.0389 C.3       1 <0>        -0.0008
     19 C14         2.1805   -6.1606    0.3182 C.3       1 <0>         0.1457
     20 C15        -1.5034   -6.6611    0.8876 C.3       1 <0>         0.0599
     21 C16        -1.6243   -8.0404    0.2366 C.3       1 <0>        -0.0779
     22 C17        -3.0711   -8.3231   -0.0764 C.ar      1 <0>        -0.0635
     23 C18        -3.8720   -8.9455    0.8630 C.ar      1 <0>        -0.0945
     24 C19        -5.1992   -9.2058    0.5782 C.ar      1 <0>        -0.1216
     25 C20        -5.7279   -8.8428   -0.6483 C.ar      1 <0>         0.0642
     26 C21        -4.9248   -8.2182   -1.5903 C.ar      1 <0>         0.0712
     27 C22        -3.5974   -7.9546   -1.3002 C.ar      1 <0>        -0.1235
     28 F1         -5.4385   -7.8634   -2.7884 F         1 <0>        -0.1271
     29 F2         -7.0250   -9.0973   -0.9276 F         1 <0>        -0.1276
     30 C23         0.5646   -3.2343   -0.3488 C.3       1 <0>         0.1152
     31 C24         0.2424   -3.6195   -1.7696 C.ar      1 <0>        -0.0724
     32 C25        -0.7298   -2.9389   -2.4865 C.ar      1 <0>        -0.1578
     33 C26        -0.9982   -3.3205   -3.7874 C.ar      1 <0>         0.1056
     34 N6         -0.3423   -4.3185   -4.3465 N.ar      1 <0>        -0.4715
     35 C27         0.5884   -4.9881   -3.6951 C.ar      1 <0>         0.1034
     36 C28         0.9152   -4.6593   -2.3930 C.ar      1 <0>        -0.1566
     37 C29         5.2478    0.7476   -0.9240 C.2       1 <0>         0.5437
     38 O1          5.9848    0.0321   -0.2738 O.2       1 <0>        -0.4863
     39 N7          5.7036    1.9181   -1.4125 N.am      1 <0>        -0.8546
     40 H1          1.0462    1.4002   -2.7337 H         1 <0>         0.1411
     41 H2          3.3672    2.0883   -2.3151 H         1 <0>         0.1360
     42 H3          0.1973   -0.7251   -1.8600 H         1 <0>         0.1305
     43 H4          6.4279   -3.3855    1.7633 H         1 <0>         0.2014
     44 H5          1.7665   -5.8585    3.1331 H         1 <0>         0.0741
     45 H6          1.6265   -4.0860    2.9945 H         1 <0>         0.0745
     46 H7         -0.6001   -5.2778    2.9046 H         1 <0>         0.0928
     47 H8         -0.2569   -4.3070    1.4521 H         1 <0>         0.0416
     48 H9          0.5370   -7.1503   -0.6601 H         1 <0>         0.0923
     49 H10         0.3930   -5.3772   -0.5853 H         1 <0>         0.0638
     50 H11         2.7591   -5.9569   -0.5828 H         1 <0>         0.0714
     51 H12         2.5152   -7.0953    0.7681 H         1 <0>         0.0744
     52 H13        -2.0850   -6.6421    1.8093 H         1 <0>         0.0828
     53 H14        -1.8821   -5.9019    0.2033 H         1 <0>         0.0357
     54 H15        -1.0427   -8.0594   -0.6851 H         1 <0>         0.0775
     55 H16        -1.2456   -8.7996    0.9209 H         1 <0>         0.0922
     56 H17        -3.4601   -9.2290    1.8203 H         1 <0>         0.1429
     57 H18        -5.8237   -9.6928    1.3127 H         1 <0>         0.1480
     58 H19        -2.9717   -7.4647   -2.0316 H         1 <0>         0.1422
     59 H20         0.6533   -4.1339    0.2603 H         1 <0>         0.1487
     60 H21        -0.2326   -2.6049    0.0467 H         1 <0>         0.0889
     61 H22        -1.2709   -2.1211   -2.0338 H         1 <0>         0.1366
     62 H23        -1.7540   -2.7954   -4.3526 H         1 <0>         0.1607
     63 H24         1.1042   -5.8000   -4.1860 H         1 <0>         0.1597
     64 H25         1.6819   -5.2082   -1.8664 H         1 <0>         0.1361
     65 H26         5.1155    2.4891   -1.9313 H         1 <0>         0.3977
     66 H27         6.6197    2.1896   -1.2453 H         1 <0>         0.4062
@<TRIPOS>BOND
     1    1    6 ar
     2    1    2 ar
     3    1   40 1
     4    2    3 ar
     5    2   41 1
     6    3    4 ar
     7    3   37 1
     8    4    9 1
     9    4    5 ar
    10    5    6 ar
    11    5    7 1
    12    6   42 1
    13    7    8 1
    14    7   30 1
    15    8   13 ar
    16    8    9 ar
    17    9   10 ar
    18   10   11 ar
    19   11   12 ar
    20   11   43 1
    21   12   13 ar
    22   13   14 1
    23   14   19 1
    24   14   15 1
    25   15   16 1
    26   15   44 1
    27   15   45 1
    28   16   17 1
    29   16   46 1
    30   16   47 1
    31   17   18 1
    32   17   20 1
    33   18   19 1
    34   18   48 1
    35   18   49 1
    36   19   50 1
    37   19   51 1
    38   20   21 1
    39   20   52 1
    40   20   53 1
    41   21   22 1
    42   21   54 1
    43   21   55 1
    44   22   27 ar
    45   22   23 ar
    46   23   24 ar
    47   23   56 1
    48   24   25 ar
    49   24   57 1
    50   25   26 ar
    51   25   29 1
    52   26   27 ar
    53   26   28 1
    54   27   58 1
    55   30   31 1
    56   30   59 1
    57   30   60 1
    58   31   36 ar
    59   31   32 ar
    60   32   33 ar
    61   32   61 1
    62   33   34 ar
    63   33   62 1
    64   34   35 ar
    65   35   36 ar
    66   35   63 1
    67   36   64 1
    68   37   38 2
    69   37   39 am
    70   39   65 1
    71   39   66 1
@<TRIPOS>MOLECULE
CHEMBL112592
   32    34     0     0     0
SMALL
USER_CHARGES

@<TRIPOS>ATOM
      1 C1         -0.0167    1.3821    0.0096 C.ar      1 <0>        -0.0736
      2 C2          1.1937    2.0586    0.0017 C.ar      1 <0>        -0.1704
      3 C3          2.3701    1.3338   -0.0134 C.ar      1 <0>         0.1054
      4 N1          2.3500    0.0151   -0.0207 N.ar      1 <0>        -0.4804
      5 C4          1.2181   -0.6611   -0.0136 C.ar      1 <0>         0.1191
      6 C5          0.0021   -0.0041    0.0020 C.ar      1 <0>        -0.1500
      7 C6          1.2505   -2.1677   -0.0230 C.3       1 <0>         0.1127
      8 O1         -0.0861   -2.6730   -0.0128 O.3       1 <0>        -0.3089
      9 C7         -0.2352   -4.0243   -0.0194 C.ar      1 <0>         0.1293
     10 C8          0.8831   -4.8453   -0.0297 C.ar      1 <0>        -0.1797
     11 C9          0.7321   -6.2178   -0.0365 C.ar      1 <0>        -0.0895
     12 C10        -0.5387   -6.7760   -0.0326 C.ar      1 <0>         0.0959
     13 C11        -1.6574   -5.9542   -0.0218 C.ar      1 <0>        -0.0901
     14 C12        -1.5055   -4.5819   -0.0102 C.ar      1 <0>        -0.1214
     15 N2         -0.6926   -8.1712   -0.0399 N.pl3     1 <0>        -0.4078
     16 C13        -1.8776   -8.8601   -0.0428 C.2       1 <0>        -0.0558
     17 C14        -1.5669  -10.1705   -0.0500 C.2       1 <0>        -0.0212
     18 N3         -0.2306  -10.2839   -0.0515 N.2       1 <0>        -0.4847
     19 C15         0.3043   -9.0932   -0.0515 C.2       1 <0>         0.1859
     20 H1         -0.9518    1.9222    0.0259 H         1 <0>         0.1383
     21 H2          1.2167    3.1384    0.0069 H         1 <0>         0.1389
     22 H3          3.3170    1.8532   -0.0197 H         1 <0>         0.1617
     23 H4         -0.9217   -0.5635    0.0082 H         1 <0>         0.1444
     24 H5          1.7632   -2.5145   -0.9202 H         1 <0>         0.0890
     25 H6          1.7809   -2.5252    0.8596 H         1 <0>         0.0889
     26 H7          1.8719   -4.4108   -0.0327 H         1 <0>         0.1418
     27 H8          1.6027   -6.8568   -0.0452 H         1 <0>         0.1371
     28 H9         -2.6463   -6.3882   -0.0191 H         1 <0>         0.1397
     29 H10        -2.3758   -3.9424    0.0023 H         1 <0>         0.1436
     30 H11        -2.8699   -8.4339   -0.0393 H         1 <0>         0.1782
     31 H12        -2.2720  -10.9886   -0.0533 H         1 <0>         0.1755
     32 H13         1.3625   -8.8774   -0.0570 H         1 <0>         0.2080
@<TRIPOS>BOND
     1    1    6 ar
     2    1    2 ar
     3    1   20 1
     4    2    3 ar
     5    2   21 1
     6    3    4 ar
     7    3   22 1
     8    4    5 ar
     9    5    6 ar
    10    5    7 1
    11    6   23 1
    12    7    8 1
    13    7   24 1
    14    7   25 1
    15    8    9 1
    16    9   14 ar
    17    9   10 ar
    18   10   11 ar
    19   10   26 1
    20   11   12 ar
    21   11   27 1
    22   12   13 ar
    23   12   15 1
    24   13   14 ar
    25   13   28 1
    26   14   29 1
    27   15   19 1
    28   15   16 1
    29   16   17 2
    30   16   30 1
    31   17   18 1
    32   17   31 1
    33   18   19 2
    34   19   32 1
@<TRIPOS>MOLECULE
CHEMBL271579
   32    34     0     0     0
SMALL
USER_CHARGES

@<TRIPOS>ATOM
      1 C1         -0.0167    1.3792    0.0096 C.ar      1 <0>        -0.1011
      2 C2          1.1708    2.0869    0.0021 C.ar      1 <0>        -0.0547
      3 C3          2.3773    1.4131   -0.0135 C.ar      1 <0>        -0.0535
      4 C4          2.3974    0.0294   -0.0212 C.ar      1 <0>        -0.0104
      5 C5          1.2096   -0.6792   -0.0132 C.ar      1 <0>        -0.0979
      6 C6          0.0021   -0.0041    0.0020 C.ar      1 <0>        -0.0175
      7 Cl1        -1.4893   -0.8926    0.0121 Cl        1 <0>        -0.0559
      8 Cl2         3.9130   -0.8168   -0.0414 Cl        1 <0>        -0.0562
      9 C7          3.6714    2.1853   -0.0227 C.3       1 <0>         0.1410
     10 C8          4.4974    1.8387    1.2312 C.3       1 <0>        -0.1353
     11 C9          4.6983    3.1996    1.9413 C.3       1 <0>        -0.0886
     12 C10         4.4600    4.2064    0.7872 C.3       1 <0>         0.0521
     13 O1          3.3991    3.5960    0.0214 O.3       1 <0>        -0.3422
     14 Br1         6.5266    3.3600    2.6461 Br        1 <0>        -0.1237
     15 C11         4.4689    1.8487   -1.2843 C.3       1 <0>         0.1060
     16 N1          3.6772    2.1910   -2.4684 N.pl3     1 <0>        -0.3695
     17 C12         4.0494    2.9905   -3.4830 C.2       1 <0>         0.2558
     18 N2          3.0646    3.0406   -4.3428 N.2       1 <0>        -0.5434
     19 C13         2.0512    2.2894   -3.9136 C.2       1 <0>         0.1955
     20 N3          2.3808    1.7443   -2.7722 N.2       1 <0>        -0.3022
     21 H1         -0.9592    1.9062    0.0260 H         1 <0>         0.1398
     22 H2          1.1557    3.1667    0.0080 H         1 <0>         0.1436
     23 H3          1.2248   -1.7590   -0.0191 H         1 <0>         0.1445
     24 H4          3.9464    1.1512    1.8729 H         1 <0>         0.1030
     25 H5          5.4589    1.4104    0.9483 H         1 <0>         0.1014
     26 H6          3.9636    3.3365    2.7348 H         1 <0>         0.1259
     27 H7          4.1431    5.1725    1.1799 H         1 <0>         0.1144
     28 H8          5.3588    4.3138    0.1799 H         1 <0>         0.0789
     29 H9          5.3973    2.4198   -1.2904 H         1 <0>         0.1088
     30 H10         4.6978    0.7830   -1.2959 H         1 <0>         0.1139
     31 H11         4.9961    3.5026   -3.5724 H         1 <0>         0.2144
     32 H12         1.1116    2.1501   -4.4276 H         1 <0>         0.2132
@<TRIPOS>BOND
     1    1    6 ar
     2    1    2 ar
     3    1   21 1
     4    2    3 ar
     5    2   22 1
     6    3    4 ar
     7    3    9 1
     8    4    5 ar
     9    4    8 1
    10    5    6 ar
    11    5   23 1
    12    6    7 1
    13    9   13 1
    14    9   10 1
    15    9   15 1
    16   10   11 1
    17   10   24 1
    18   10   25 1
    19   11   12 1
    20   11   14 1
    21   11   26 1
    22   12   13 1
    23   12   27 1
    24   12   28 1
    25   15   16 1
    26   15   29 1
    27   15   30 1
    28   16   20 1
    29   16   17 1
    30   17   18 2
    31   17   31 1
    32   18   19 1
    33   19   20 2
    34   19   32 1
@<TRIPOS>MOLECULE
CHEMBL271579
   32    34     0     0     0
SMALL
USER_CHARGES

@<TRIPOS>ATOM
      1 C1         -0.0167    1.3792    0.0096 C.ar      1 <0>        -0.1009
      2 C2          1.1708    2.0869    0.0021 C.ar      1 <0>        -0.0560
      3 C3          2.3773    1.4131   -0.0135 C.ar      1 <0>        -0.0636
      4 C4          2.3974    0.0294   -0.0212 C.ar      1 <0>        -0.0090
      5 C5          1.2096   -0.6792   -0.0132 C.ar      1 <0>        -0.0982
      6 C6          0.0021   -0.0041    0.0020 C.ar      1 <0>        -0.0177
      7 Cl1        -1.4893   -0.8926    0.0121 Cl        1 <0>        -0.0563
      8 Cl2         3.9130   -0.8168   -0.0414 Cl        1 <0>        -0.0582
      9 C7          3.6714    2.1853   -0.0227 C.3       1 <0>         0.1440
     10 C8          4.5013    1.8316    1.2300 C.3       1 <0>        -0.1348
     11 C9          5.1030    3.2074    1.6261 C.3       1 <0>        -0.0936
     12 C10         3.9511    4.1604    1.2188 C.3       1 <0>         0.0566
     13 O1          3.3989    3.5908    0.0213 O.3       1 <0>        -0.3481
     14 Br1         5.4487    3.2995    3.5593 Br        1 <0>        -0.1166
     15 C11         4.4666    1.8502   -1.2861 C.3       1 <0>         0.1169
     16 N1          3.6730    2.1945   -2.4684 N.pl3     1 <0>        -0.3700
     17 C12         4.0439    2.9953   -3.4825 C.2       1 <0>         0.2569
     18 N2          3.0576    3.0471   -4.3405 N.2       1 <0>        -0.5441
     19 C13         2.0447    2.2957   -3.9107 C.2       1 <0>         0.1953
     20 N3          2.3759    1.7488   -2.7706 N.2       1 <0>        -0.3020
     21 H1         -0.9592    1.9062    0.0260 H         1 <0>         0.1394
     22 H2          1.1557    3.1667    0.0080 H         1 <0>         0.1426
     23 H3          1.2248   -1.7590   -0.0191 H         1 <0>         0.1440
     24 H4          3.8611    1.4453    2.0232 H         1 <0>         0.1044
     25 H5          5.2894    1.1196    0.9849 H         1 <0>         0.1059
     26 H6          6.0079    3.4191    1.0566 H         1 <0>         0.1259
     27 H7          3.1955    4.1976    2.0034 H         1 <0>         0.0805
     28 H8          4.3392    5.1591    1.0186 H         1 <0>         0.1057
     29 H9          5.3953    2.4209   -1.2930 H         1 <0>         0.1096
     30 H10         4.6951    0.7844   -1.2997 H         1 <0>         0.1141
     31 H11         4.9906    3.5072   -3.5728 H         1 <0>         0.2146
     32 H12         1.1042    2.1574   -4.4233 H         1 <0>         0.2129
@<TRIPOS>BOND
     1    1    6 ar
     2    1    2 ar
     3    1   21 1
     4    2    3 ar
     5    2   22 1
     6    3    4 ar
     7    3    9 1
     8    4    5 ar
     9    4    8 1
    10    5    6 ar
    11    5   23 1
    12    6    7 1
    13    9   13 1
    14    9   10 1
    15    9   15 1
    16   10   11 1
    17   10   24 1
    18   10   25 1
    19   11   12 1
    20   11   14 1
    21   11   26 1
    22   12   13 1
    23   12   27 1
    24   12   28 1
    25   15   16 1
    26   15   29 1
    27   15   30 1
    28   16   20 1
    29   16   17 1
    30   17   18 2
    31   17   31 1
    32   18   19 1
    33   19   20 2
    34   19   32 1
@<TRIPOS>MOLECULE
CHEMBL271579
   32    34     0     0     0
SMALL
USER_CHARGES

@<TRIPOS>ATOM
      1 C1         -0.0167    1.3792    0.0096 C.ar      1 <0>        -0.1029
      2 C2          1.1708    2.0869    0.0021 C.ar      1 <0>        -0.0545
      3 C3          2.3773    1.4131   -0.0135 C.ar      1 <0>        -0.0682
      4 C4          2.3974    0.0294   -0.0212 C.ar      1 <0>        -0.0240
      5 C5          1.2096   -0.6792   -0.0132 C.ar      1 <0>        -0.1000
      6 C6          0.0021   -0.0041    0.0020 C.ar      1 <0>        -0.0188
      7 Cl1        -1.4893   -0.8926    0.0121 Cl        1 <0>        -0.0511
      8 Cl2         3.9130   -0.8168   -0.0414 Cl        1 <0>        -0.0541
      9 C7          3.6714    2.1853   -0.0227 C.3       1 <0>         0.1415
     10 C8          4.4718    1.8515   -1.2966 C.3       1 <0>        -0.1373
     11 C9          4.6584    3.2195   -1.9969 C.3       1 <0>        -0.0911
     12 C10         4.4437    4.2145   -0.8280 C.3       1 <0>         0.0512
     13 O1          3.3984    3.5964   -0.0472 O.3       1 <0>        -0.3224
     14 Br1         3.3046    3.4807   -3.3983 Br        1 <0>        -0.1269
     15 C11         4.4943    1.8360    1.2190 C.3       1 <0>         0.1086
     16 N1          3.6833    2.0540    2.4194 N.pl3     1 <0>        -0.3713
     17 C12         3.4269    1.1615    3.3914 C.2       1 <0>         0.2507
     18 N2          2.6676    1.7415    4.2852 N.2       1 <0>        -0.5414
     19 C13         2.4194    2.9987    3.9200 C.2       1 <0>         0.1898
     20 N3          3.0243    3.2387    2.7864 N.2       1 <0>        -0.2892
     21 H1         -0.9592    1.9062    0.0260 H         1 <0>         0.1427
     22 H2          1.1557    3.1667    0.0080 H         1 <0>         0.1519
     23 H3          1.2248   -1.7590   -0.0191 H         1 <0>         0.1479
     24 H4          5.4388    1.4204   -1.0375 H         1 <0>         0.1013
     25 H5          3.9078    1.1704   -1.9339 H         1 <0>         0.1037
     26 H6          5.6639    3.3125   -2.4071 H         1 <0>         0.1282
     27 H7          5.3546    4.3160   -0.2381 H         1 <0>         0.0808
     28 H8          4.1190    5.1845   -1.2045 H         1 <0>         0.1125
     29 H9          4.7985    0.7905    1.1709 H         1 <0>         0.1191
     30 H10         5.3796    2.4706    1.2584 H         1 <0>         0.0978
     31 H11         3.7846    0.1431    3.4279 H         1 <0>         0.2115
     32 H12         1.8193    3.7060    4.4732 H         1 <0>         0.2141
@<TRIPOS>BOND
     1    1    6 ar
     2    1    2 ar
     3    1   21 1
     4    2    3 ar
     5    2   22 1
     6    3    4 ar
     7    3    9 1
     8    4    5 ar
     9    4    8 1
    10    5    6 ar
    11    5   23 1
    12    6    7 1
    13    9   13 1
    14    9   10 1
    15    9   15 1
    16   10   11 1
    17   10   24 1
    18   10   25 1
    19   11   12 1
    20   11   14 1
    21   11   26 1
    22   12   13 1
    23   12   27 1
    24   12   28 1
    25   15   16 1
    26   15   29 1
    27   15   30 1
    28   16   20 1
    29   16   17 1
    30   17   18 2
    31   17   31 1
    32   18   19 1
    33   19   20 2
    34   19   32 1
@<TRIPOS>MOLECULE
CHEMBL271579
   32    34     0     0     0
SMALL
USER_CHARGES

@<TRIPOS>ATOM
      1 C1         -0.0167    1.3792    0.0096 C.ar      1 <0>        -0.1026
      2 C2          1.1708    2.0869    0.0021 C.ar      1 <0>        -0.0594
      3 C3          2.3773    1.4131   -0.0135 C.ar      1 <0>        -0.0726
      4 C4          2.3974    0.0294   -0.0212 C.ar      1 <0>        -0.0236
      5 C5          1.2096   -0.6792   -0.0132 C.ar      1 <0>        -0.0991
      6 C6          0.0021   -0.0041    0.0020 C.ar      1 <0>        -0.0188
      7 Cl1        -1.4893   -0.8926    0.0121 Cl        1 <0>        -0.0496
      8 Cl2         3.9130   -0.8168   -0.0414 Cl        1 <0>        -0.0509
      9 C7          3.6714    2.1853   -0.0227 C.3       1 <0>         0.1429
     10 C8          4.4718    1.8515   -1.2966 C.3       1 <0>        -0.1357
     11 C9          4.6584    3.2195   -1.9969 C.3       1 <0>        -0.0886
     12 C10         4.4437    4.2145   -0.8280 C.3       1 <0>         0.0532
     13 O1          3.3984    3.5964   -0.0472 O.3       1 <0>        -0.3254
     14 Br1         6.4721    3.3872   -2.7369 Br        1 <0>        -0.1256
     15 C11         4.4943    1.8360    1.2190 C.3       1 <0>         0.1090
     16 N1          3.6833    2.0540    2.4194 N.pl3     1 <0>        -0.3714
     17 C12         3.4269    1.1615    3.3914 C.2       1 <0>         0.2509
     18 N2          2.6676    1.7415    4.2852 N.2       1 <0>        -0.5413
     19 C13         2.4194    2.9987    3.9200 C.2       1 <0>         0.1899
     20 N3          3.0243    3.2387    2.7864 N.2       1 <0>        -0.2901
     21 H1         -0.9592    1.9062    0.0260 H         1 <0>         0.1436
     22 H2          1.1557    3.1667    0.0080 H         1 <0>         0.1524
     23 H3          1.2248   -1.7590   -0.0191 H         1 <0>         0.1488
     24 H4          5.4388    1.4204   -1.0375 H         1 <0>         0.1008
     25 H5          3.9078    1.1704   -1.9339 H         1 <0>         0.1017
     26 H6          3.9078    3.3643   -2.7739 H         1 <0>         0.1250
     27 H7          5.3546    4.3160   -0.2381 H         1 <0>         0.0781
     28 H8          4.1190    5.1845   -1.2045 H         1 <0>         0.1135
     29 H9          4.7985    0.7905    1.1709 H         1 <0>         0.1198
     30 H10         5.3796    2.4706    1.2584 H         1 <0>         0.0992
     31 H11         3.7846    0.1431    3.4279 H         1 <0>         0.2118
     32 H12         1.8193    3.7060    4.4732 H         1 <0>         0.2143
@<TRIPOS>BOND
     1    1    6 ar
     2    1    2 ar
     3    1   21 1
     4    2    3 ar
     5    2   22 1
     6    3    4 ar
     7    3    9 1
     8    4    5 ar
     9    4    8 1
    10    5    6 ar
    11    5   23 1
    12    6    7 1
    13    9   13 1
    14    9   10 1
    15    9   15 1
    16   10   11 1
    17   10   24 1
    18   10   25 1
    19   11   12 1
    20   11   14 1
    21   11   26 1
    22   12   13 1
    23   12   27 1
    24   12   28 1
    25   15   16 1
    26   15   29 1
    27   15   30 1
    28   16   20 1
    29   16   17 1
    30   17   18 2
    31   17   31 1
    32   18   19 1
    33   19   20 2
    34   19   32 1
@<TRIPOS>MOLECULE
CHEMBL271580
   31    33     0     0     0
SMALL
USER_CHARGES

@<TRIPOS>ATOM
      1 C1         -0.0167    1.3792    0.0096 C.ar      1 <0>        -0.1064
      2 C2          1.1708    2.0869    0.0021 C.ar      1 <0>        -0.0603
      3 C3          2.3773    1.4131   -0.0135 C.ar      1 <0>        -0.1003
      4 C4          2.3974    0.0294   -0.0212 C.ar      1 <0>        -0.0062
      5 C5          1.2096   -0.6792   -0.0132 C.ar      1 <0>        -0.1059
      6 C6          0.0021   -0.0041    0.0020 C.ar      1 <0>        -0.0129
      7 Cl1        -1.4893   -0.8926    0.0121 Cl        1 <0>        -0.0493
      8 Cl2         3.9130   -0.8168   -0.0414 Cl        1 <0>        -0.0505
      9 C7          3.6714    2.1853   -0.0227 C.3       1 <0>         0.1725
     10 N1          4.2274    2.2227    1.3321 N.pl3     1 <0>        -0.3609
     11 C8          5.4649    1.8271    1.6890 C.2       1 <0>         0.0913
     12 C9          5.5895    2.0240    3.0341 C.2       1 <0>        -0.2122
     13 C10         4.3724    2.5606    3.4990 C.2       1 <0>         0.0729
     14 N2          3.5664    2.6814    2.4779 N.2       1 <0>        -0.2827
     15 C11         6.7879    1.7266    3.8567 C.ar      1 <0>         0.0548
     16 C12         7.9441    1.1976    3.2759 C.ar      1 <0>        -0.1812
     17 C13         9.0360    0.9363    4.0770 C.ar      1 <0>         0.1067
     18 N3          8.9984    1.1791    5.3735 N.ar      1 <0>        -0.4967
     19 C14         7.9271    1.6780    5.9607 C.ar      1 <0>         0.1068
     20 C15         6.7936    1.9733    5.2325 C.ar      1 <0>        -0.1757
     21 H1         -0.9592    1.9062    0.0260 H         1 <0>         0.1453
     22 H2          1.1557    3.1667    0.0080 H         1 <0>         0.1464
     23 H3          1.2248   -1.7590   -0.0191 H         1 <0>         0.1474
     24 H4          4.3801    1.6988   -0.6930 H         1 <0>         0.1130
     25 H5          3.4851    3.2025   -0.3672 H         1 <0>         0.1050
     26 H6          6.2211    1.4265    1.0303 H         1 <0>         0.1765
     27 H7          4.1467    2.8289    4.5205 H         1 <0>         0.1874
     28 H8          7.9817    0.9961    2.2155 H         1 <0>         0.1301
     29 H9          9.9336    0.5271    3.6374 H         1 <0>         0.1549
     30 H10         7.9396    1.8613    7.0249 H         1 <0>         0.1559
     31 H11         5.9218    2.3854    5.7189 H         1 <0>         0.1342
@<TRIPOS>BOND
     1    1    6 ar
     2    1    2 ar
     3    1   21 1
     4    2    3 ar
     5    2   22 1
     6    3    4 ar
     7    3    9 1
     8    4    5 ar
     9    4    8 1
    10    5    6 ar
    11    5   23 1
    12    6    7 1
    13    9   10 1
    14    9   24 1
    15    9   25 1
    16   10   14 1
    17   10   11 1
    18   11   12 2
    19   11   26 1
    20   12   13 1
    21   12   15 1
    22   13   14 2
    23   13   27 1
    24   15   20 ar
    25   15   16 ar
    26   16   17 ar
    27   16   28 1
    28   17   18 ar
    29   17   29 1
    30   18   19 ar
    31   19   20 ar
    32   19   30 1
    33   20   31 1
@<TRIPOS>MOLECULE
CHEMBL262968
   38    40     0     0     0
SMALL
USER_CHARGES

@<TRIPOS>ATOM
      1 C1         -0.0167    1.3776    0.0096 C.ar      1 <0>        -0.1696
      2 C2          1.1849    2.0698    0.0019 C.ar      1 <0>        -0.0719
      3 C3          2.3651    1.3426   -0.0133 C.ar      1 <0>        -0.1367
      4 C4          2.3054   -0.0383   -0.0202 C.ar      1 <0>         0.1032
      5 N1          1.1443   -0.6632   -0.0129 N.ar      1 <0>        -0.4830
      6 C5          0.0021   -0.0041    0.0020 C.ar      1 <0>         0.0954
      7 C6          3.6964    2.0488   -0.0227 C.3       1 <0>        -0.0726
      8 C7          4.1610    2.2805    1.4165 C.3       1 <0>        -0.1145
      9 C8          5.5125    2.9975    1.4069 C.3       1 <0>         0.0571
     10 O1          5.9465    3.2139    2.7512 O.3       1 <0>        -0.3105
     11 C9          7.1388    3.8446    2.9208 C.ar      1 <0>         0.1289
     12 C10         7.8717    4.2512    1.8153 C.ar      1 <0>        -0.1818
     13 C11         9.0828    4.8918    1.9873 C.ar      1 <0>        -0.0901
     14 C12         9.5667    5.1293    3.2664 C.ar      1 <0>         0.0934
     15 C13         8.8328    4.7227    4.3723 C.ar      1 <0>        -0.0896
     16 C14         7.6195    4.0865    4.1995 C.ar      1 <0>        -0.1244
     17 N2         10.7979    5.7801    3.4416 N.pl3     1 <0>        -0.4073
     18 C15        11.4005    6.0756    4.6368 C.2       1 <0>        -0.0557
     19 C16        12.5592    6.6974    4.3463 C.2       1 <0>        -0.0214
     20 N3         12.6659    6.7817    3.0120 N.2       1 <0>        -0.4848
     21 C17        11.6199    6.2305    2.4589 C.2       1 <0>         0.1852
     22 H1         -0.9552    1.9117    0.0259 H         1 <0>         0.1365
     23 H2          1.2009    3.1496    0.0072 H         1 <0>         0.1344
     24 H3          3.2203   -0.6121   -0.0320 H         1 <0>         0.1548
     25 H4         -0.9294   -0.5505    0.0083 H         1 <0>         0.1566
     26 H5          4.4293    1.4355   -0.5468 H         1 <0>         0.0814
     27 H6          3.5953    3.0079   -0.5308 H         1 <0>         0.0794
     28 H7          3.4280    2.8939    1.9406 H         1 <0>         0.0771
     29 H8          4.2620    1.3215    1.9245 H         1 <0>         0.0785
     30 H9          6.2455    2.3842    0.8828 H         1 <0>         0.0670
     31 H10         5.4115    3.9566    0.8989 H         1 <0>         0.0661
     32 H11         7.4952    4.0664    0.8201 H         1 <0>         0.1397
     33 H12         9.6537    5.2077    1.1266 H         1 <0>         0.1359
     34 H13         9.2091    4.9071    5.3677 H         1 <0>         0.1391
     35 H14         7.0465    3.7738    5.0599 H         1 <0>         0.1429
     36 H15        11.0189    5.8531    5.6223 H         1 <0>         0.1781
     37 H16        13.2779    7.0652    5.0637 H         1 <0>         0.1755
     38 H17        11.4374    6.1487    1.3976 H         1 <0>         0.2076
@<TRIPOS>BOND
     1    1    6 ar
     2    1    2 ar
     3    1   22 1
     4    2    3 ar
     5    2   23 1
     6    3    4 ar
     7    3    7 1
     8    4    5 ar
     9    4   24 1
    10    5    6 ar
    11    6   25 1
    12    7    8 1
    13    7   26 1
    14    7   27 1
    15    8    9 1
    16    8   28 1
    17    8   29 1
    18    9   10 1
    19    9   30 1
    20    9   31 1
    21   10   11 1
    22   11   16 ar
    23   11   12 ar
    24   12   13 ar
    25   12   32 1
    26   13   14 ar
    27   13   33 1
    28   14   15 ar
    29   14   17 1
    30   15   16 ar
    31   15   34 1
    32   16   35 1
    33   17   21 1
    34   17   18 1
    35   18   19 2
    36   18   36 1
    37   19   20 1
    38   19   37 1
    39   20   21 2
    40   21   38 1
@<TRIPOS>MOLECULE
CHEMBL26678
   58    62     0     0     0
SMALL
USER_CHARGES

@<TRIPOS>ATOM
      1 C1          3.0370    0.4961    2.8384 C.3       1 <0>         0.0844
      2 N1          2.5714   -0.8154    2.3808 N.pl3     1 <0>        -0.4877
      3 C2          3.3899   -1.8285    1.9188 C.ar      1 <0>         0.1492
      4 C3          4.7709   -1.9177    1.7575 C.ar      1 <0>        -0.1176
      5 C4          5.3420   -3.0718    1.2645 C.ar      1 <0>        -0.0696
      6 C5          4.5578   -4.1593    0.9223 C.ar      1 <0>        -0.1120
      7 C6          3.1755   -4.0983    1.0735 C.ar      1 <0>        -0.0550
      8 C7          2.5847   -2.9242    1.5754 C.ar      1 <0>        -0.0640
      9 C8          1.1978   -2.5288    1.8544 C.ar      1 <0>         0.1601
     10 C9          1.2519   -1.2206    2.3542 C.ar      1 <0>         0.0463
     11 C10         0.0449   -0.6018    2.7095 C.ar      1 <0>         0.3863
     12 N2         -1.0874   -1.2800    2.5604 N.ar      1 <0>        -0.4999
     13 C11        -1.0907   -2.5132    2.0883 C.ar      1 <0>         0.2716
     14 N3          0.0147   -3.1319    1.7342 N.ar      1 <0>        -0.4160
     15 N4          0.0336    0.6920    3.2068 N.pl3     1 <0>        -0.6586
     16 C12        -0.2089    1.8409    2.3206 C.3       1 <0>         0.1210
     17 C13        -1.3068    2.7105    2.9421 C.3       1 <0>        -0.0216
     18 N5         -0.9257    3.0725    4.3131 N.4       1 <0>        -0.3806
     19 C14        -0.8569    1.8665    5.1480 C.3       1 <0>        -0.0282
     20 C15         0.2577    0.9547    4.6368 C.3       1 <0>         0.1203
     21 C16        -1.9243    3.9949    4.8697 C.3       1 <0>        -0.0082
     22 C17        -1.4660    4.4707    6.2497 C.3       1 <0>        -0.0992
     23 C18        -2.4905    5.4170    6.8207 C.ar      1 <0>        -0.0898
     24 C19        -2.3933    6.7732    6.5700 C.ar      1 <0>        -0.0891
     25 C20        -3.3318    7.6430    7.0925 C.ar      1 <0>        -0.1199
     26 C21        -4.3704    7.1566    7.8674 C.ar      1 <0>         0.0854
     27 C22        -4.4681    5.7965    8.1184 C.ar      1 <0>         0.0757
     28 C23        -3.5294    4.9275    7.5897 C.ar      1 <0>        -0.1169
     29 F1         -5.4807    5.3195    8.8748 F         1 <0>        -0.1189
     30 F2         -5.2878    8.0062    8.3789 F         1 <0>        -0.1174
     31 C24         2.3355   -5.2564    0.7090 C.2       1 <0>         0.5439
     32 O1          1.1286   -5.1981    0.8429 O.2       1 <0>        -0.4905
     33 N6          2.9068   -6.3783    0.2278 N.am      1 <0>        -0.8515
     34 H1          3.1541    0.4823    3.9220 H         1 <0>         0.0688
     35 H2          3.9955    0.7243    2.3722 H         1 <0>         0.0885
     36 H3          2.3078    1.2575    2.5614 H         1 <0>         0.0793
     37 H4          5.3976   -1.0781    2.0198 H         1 <0>         0.1354
     38 H5          6.4138   -3.1276    1.1437 H         1 <0>         0.1459
     39 H6          5.0189   -5.0567    0.5371 H         1 <0>         0.1401
     40 H7         -2.0337   -3.0291    1.9833 H         1 <0>         0.2050
     41 H8          0.7063    2.4241    2.2182 H         1 <0>         0.0838
     42 H9         -0.5324    1.4867    1.3418 H         1 <0>         0.1176
     43 H10        -1.4326    3.6161    2.3487 H         1 <0>         0.1399
     44 H11        -2.2441    2.1545    2.9602 H         1 <0>         0.1372
     45 H12        -0.6512    2.1503    6.1802 H         1 <0>         0.1408
     46 H13        -1.8079    1.3361    5.0994 H         1 <0>         0.1372
     47 H14         0.2426    0.0148    5.1886 H         1 <0>         0.1162
     48 H15         1.2208    1.4469    4.7722 H         1 <0>         0.0836
     49 H16        -2.0347    4.8536    4.2075 H         1 <0>         0.1360
     50 H17        -2.8815    3.4816    4.9618 H         1 <0>         0.1335
     51 H18        -1.3555    3.6120    6.9119 H         1 <0>         0.1000
     52 H19        -0.5088    4.9840    6.1576 H         1 <0>         0.1026
     53 H20        -1.5831    7.1533    5.9655 H         1 <0>         0.1440
     54 H21        -3.2544    8.7022    6.8966 H         1 <0>         0.1547
     55 H22        -3.6065    3.8675    7.7814 H         1 <0>         0.1485
     56 H23         3.8697   -6.4248    0.1210 H         1 <0>         0.3994
     57 H24         2.3549   -7.1392   -0.0117 H         1 <0>         0.4090
     58 H25        -0.0235    3.5243    4.3020 H         1 <0>         0.4210
@<TRIPOS>BOND
     1    1    2 1
     2    1   34 1
     3    1   35 1
     4    1   36 1
     5    2   10 1
     6    2    3 1
     7    3    8 ar
     8    3    4 ar
     9    4    5 ar
    10    4   37 1
    11    5    6 ar
    12    5   38 1
    13    6    7 ar
    14    6   39 1
    15    7    8 ar
    16    7   31 1
    17    8    9 1
    18    9   14 ar
    19    9   10 ar
    20   10   11 ar
    21   11   12 ar
    22   11   15 1
    23   12   13 ar
    24   13   14 ar
    25   13   40 1
    26   15   20 1
    27   15   16 1
    28   16   17 1
    29   16   41 1
    30   16   42 1
    31   17   18 1
    32   17   43 1
    33   17   44 1
    34   18   19 1
    35   18   21 1
    36   18   58 1
    37   19   20 1
    38   19   45 1
    39   19   46 1
    40   20   47 1
    41   20   48 1
    42   21   22 1
    43   21   49 1
    44   21   50 1
    45   22   23 1
    46   22   51 1
    47   22   52 1
    48   23   28 ar
    49   23   24 ar
    50   24   25 ar
    51   24   53 1
    52   25   26 ar
    53   25   54 1
    54   26   27 ar
    55   26   30 1
    56   27   28 ar
    57   27   29 1
    58   28   55 1
    59   31   32 2
    60   31   33 am
    61   33   56 1
    62   33   57 1
@<TRIPOS>MOLECULE
CHEMBL26678
   57    61     0     0     0
SMALL
USER_CHARGES

@<TRIPOS>ATOM
      1 C1          3.0370    0.4963    2.8379 C.3       1 <0>         0.0827
      2 N1          2.5714   -0.8153    2.3804 N.pl3     1 <0>        -0.4832
      3 C2          3.3898   -1.8283    1.9182 C.ar      1 <0>         0.1515
      4 C3          4.7709   -1.9174    1.7568 C.ar      1 <0>        -0.1183
      5 C4          5.3419   -3.0715    1.2637 C.ar      1 <0>        -0.0769
      6 C5          4.5577   -4.1590    0.9216 C.ar      1 <0>        -0.1201
      7 C6          3.1755   -4.0981    1.0730 C.ar      1 <0>        -0.0579
      8 C7          2.5846   -2.9240    1.5750 C.ar      1 <0>        -0.0624
      9 C8          1.1978   -2.5288    1.8542 C.ar      1 <0>         0.1484
     10 C9          1.2519   -1.2206    2.3540 C.ar      1 <0>         0.0397
     11 C10         0.0449   -0.6018    2.7095 C.ar      1 <0>         0.4161
     12 N2         -1.0874   -1.2801    2.5606 N.ar      1 <0>        -0.5037
     13 C11        -1.0906   -2.5133    2.0885 C.ar      1 <0>         0.2673
     14 N3          0.0147   -3.1319    1.7342 N.ar      1 <0>        -0.4310
     15 N4          0.0336    0.6920    3.2068 N.pl3     1 <0>        -0.6602
     16 C12        -0.2089    1.8397    2.3195 C.3       1 <0>         0.1523
     17 C13        -1.3201    2.7006    2.9298 C.3       1 <0>         0.0408
     18 N5         -0.9626    3.0483    4.3116 N.3       1 <0>        -0.5340
     19 C14        -0.8659    1.8493    5.1548 C.3       1 <0>         0.0353
     20 C15         0.2578    0.9531    4.6367 C.3       1 <0>         0.1519
     21 C16        -1.9165    4.0128    4.8753 C.3       1 <0>         0.0604
     22 C17        -1.3820    4.5387    6.2089 C.3       1 <0>        -0.0773
     23 C18        -2.3606    5.5282    6.7872 C.ar      1 <0>        -0.0630
     24 C19        -2.2530    6.8702    6.4727 C.ar      1 <0>        -0.0951
     25 C20        -3.1493    7.7795    7.0018 C.ar      1 <0>        -0.1220
     26 C21        -4.1562    7.3470    7.8473 C.ar      1 <0>         0.0634
     27 C22        -4.2644    6.0011    8.1623 C.ar      1 <0>         0.0708
     28 C23        -3.3682    5.0923    7.6270 C.ar      1 <0>        -0.1237
     29 F1         -5.2462    5.5766    8.9877 F         1 <0>        -0.1275
     30 F2         -5.0325    8.2353    8.3652 F         1 <0>        -0.1280
     31 C24         2.3355   -5.2563    0.7086 C.2       1 <0>         0.5433
     32 O1          1.1285   -5.1981    0.8427 O.2       1 <0>        -0.4869
     33 N6          2.9067   -6.3782    0.2273 N.am      1 <0>        -0.8551
     34 H1          3.1542    0.4825    3.9215 H         1 <0>         0.0698
     35 H2          3.9954    0.7246    2.3716 H         1 <0>         0.0826
     36 H3          2.3077    1.2576    2.5610 H         1 <0>         0.0907
     37 H4          5.3975   -1.0777    2.0189 H         1 <0>         0.1335
     38 H5          6.4137   -3.1272    1.1427 H         1 <0>         0.1410
     39 H6          5.0188   -5.0564    0.5363 H         1 <0>         0.1351
     40 H7         -2.0336   -3.0292    1.9837 H         1 <0>         0.1989
     41 H8          0.7027    2.4301    2.2271 H         1 <0>         0.0649
     42 H9         -0.5192    1.4839    1.3371 H         1 <0>         0.0728
     43 H10        -1.4371    3.6123    2.3440 H         1 <0>         0.0833
     44 H11        -2.2563    2.1424    2.9258 H         1 <0>         0.0432
     45 H12        -0.6536    2.1436    6.1826 H         1 <0>         0.0858
     46 H13        -1.8085    1.3030    5.1198 H         1 <0>         0.0419
     47 H14         0.2559    0.0114    5.1856 H         1 <0>         0.0706
     48 H15         1.2151    1.4567    4.7713 H         1 <0>         0.0649
     49 H16        -2.0451    4.8441    4.1822 H         1 <0>         0.0796
     50 H17        -2.8765    3.5224    5.0366 H         1 <0>         0.0378
     51 H18        -1.2534    3.7074    6.9021 H         1 <0>         0.0780
     52 H19        -0.4220    5.0291    6.0476 H         1 <0>         0.0898
     53 H20        -1.4675    7.2083    5.8131 H         1 <0>         0.1423
     54 H21        -3.0638    8.8277    6.7559 H         1 <0>         0.1476
     55 H22        -3.4536    4.0432    7.8686 H         1 <0>         0.1444
     56 H23         3.8697   -6.4246    0.1204 H         1 <0>         0.3977
     57 H24         2.3549   -7.1391   -0.0121 H         1 <0>         0.4058
@<TRIPOS>BOND
     1    1    2 1
     2    1   34 1
     3    1   35 1
     4    1   36 1
     5    2   10 1
     6    2    3 1
     7    3    8 ar
     8    3    4 ar
     9    4    5 ar
    10    4   37 1
    11    5    6 ar
    12    5   38 1
    13    6    7 ar
    14    6   39 1
    15    7    8 ar
    16    7   31 1
    17    8    9 1
    18    9   14 ar
    19    9   10 ar
    20   10   11 ar
    21   11   12 ar
    22   11   15 1
    23   12   13 ar
    24   13   14 ar
    25   13   40 1
    26   15   20 1
    27   15   16 1
    28   16   17 1
    29   16   41 1
    30   16   42 1
    31   17   18 1
    32   17   43 1
    33   17   44 1
    34   18   19 1
    35   18   21 1
    36   19   20 1
    37   19   45 1
    38   19   46 1
    39   20   47 1
    40   20   48 1
    41   21   22 1
    42   21   49 1
    43   21   50 1
    44   22   23 1
    45   22   51 1
    46   22   52 1
    47   23   28 ar
    48   23   24 ar
    49   24   25 ar
    50   24   53 1
    51   25   26 ar
    52   25   54 1
    53   26   27 ar
    54   26   30 1
    55   27   28 ar
    56   27   29 1
    57   28   55 1
    58   31   32 2
    59   31   33 am
    60   33   56 1
    61   33   57 1
@<TRIPOS>MOLECULE
CHEMBL258502
   54    56     0     0     0
SMALL
USER_CHARGES

@<TRIPOS>ATOM
      1 C1         -0.0173    1.4248    0.0099 C.3       1 <0>         0.0252
      2 O1          0.0021   -0.0041    0.0020 O.3       1 <0>        -0.3161
      3 C2         -1.2003   -0.6375    0.0101 C.ar      1 <0>         0.1319
      4 C3         -2.3746    0.1011    0.0195 C.ar      1 <0>        -0.2048
      5 C4         -3.5956   -0.5451    0.0272 C.ar      1 <0>        -0.0728
      6 C5         -3.6478   -1.9268    0.0260 C.ar      1 <0>        -0.1316
      7 C6         -2.4788   -2.6651    0.0172 C.ar      1 <0>        -0.0757
      8 C7         -1.2554   -2.0237    0.0032 C.ar      1 <0>        -0.1504
      9 C8         -4.9811   -2.6292    0.0350 C.3       1 <0>        -0.0663
     10 C9         -5.4428   -2.8652   -1.4045 C.3       1 <0>        -0.1153
     11 C10        -6.7965   -3.5783   -1.3954 C.3       1 <0>         0.0517
     12 O2         -7.2277   -3.7988   -2.7398 O.3       1 <0>        -0.3631
     13 C11        -8.4889   -4.4626   -2.8442 C.3       1 <0>         0.1315
     14 C12        -8.2667   -5.9758   -2.8878 C.3       1 <0>         0.0697
     15 N1         -7.6978   -6.4227   -1.6139 N.pl3     1 <0>        -0.4094
     16 C13        -6.3673   -6.5044   -1.3026 C.2       1 <0>         0.0346
     17 C14        -6.2903   -6.9587   -0.0373 C.2       1 <0>        -0.0006
     18 N2         -7.5397   -7.1493    0.4119 N.pl3     1 <0>        -0.4743
     19 C15        -8.3881   -6.8255   -0.5253 C.cat     1 <0>         0.2832
     20 C16        -9.1863   -4.0208   -4.1049 C.ar      1 <0>        -0.1544
     21 C17        -8.4627   -3.8521   -5.2710 C.ar      1 <0>        -0.0433
     22 C18        -9.0996   -3.4467   -6.4279 C.ar      1 <0>        -0.1532
     23 C19       -10.4664   -3.2093   -6.4192 C.ar      1 <0>         0.1509
     24 C20       -11.1902   -3.3798   -5.2480 C.ar      1 <0>        -0.2095
     25 C21       -10.5495   -3.7903   -4.0950 C.ar      1 <0>        -0.0595
     26 O3        -11.0951   -2.8100   -7.5559 O.3       1 <0>        -0.3118
     27 C22       -12.5037   -2.5841   -7.4731 C.3       1 <0>         0.0235
     28 H1          1.0053    1.8021    0.0021 H         1 <0>         0.1046
     29 H2         -0.5445    1.7859   -0.8732 H         1 <0>         0.0574
     30 H3         -0.5275    1.7763    0.9067 H         1 <0>         0.0575
     31 H4         -2.3343    1.1803    0.0211 H         1 <0>         0.1305
     32 H5         -4.5101    0.0294    0.0345 H         1 <0>         0.1239
     33 H6         -2.5223   -3.7443    0.0166 H         1 <0>         0.1260
     34 H7         -0.3427   -2.6008   -0.0082 H         1 <0>         0.1326
     35 H8         -4.8840   -3.5865    0.5470 H         1 <0>         0.0680
     36 H9         -5.7136   -2.0117    0.5548 H         1 <0>         0.0721
     37 H10        -5.5399   -1.9079   -1.9165 H         1 <0>         0.0798
     38 H11        -4.7104   -3.4827   -1.9243 H         1 <0>         0.0757
     39 H12        -6.6994   -4.5356   -0.8833 H         1 <0>         0.0407
     40 H13        -7.5289   -2.9608   -0.8755 H         1 <0>         0.0558
     41 H14        -9.1047   -4.2105   -1.9809 H         1 <0>         0.0817
     42 H15        -9.2192   -6.4782   -3.0565 H         1 <0>         0.1330
     43 H16        -7.5792   -6.2189   -3.6979 H         1 <0>         0.1348
     44 H17        -5.5386   -6.2530   -1.9480 H         1 <0>         0.2228
     45 H18        -5.3818   -7.1382    0.5185 H         1 <0>         0.2250
     46 H19        -9.4640   -6.8741   -0.4447 H         1 <0>         0.2599
     47 H20        -7.3987   -4.0370   -5.2773 H         1 <0>         0.1361
     48 H21        -8.5338   -3.3143   -7.3383 H         1 <0>         0.1382
     49 H22       -12.2544   -3.1956   -5.2387 H         1 <0>         0.1356
     50 H23       -11.1133   -3.9274   -3.1841 H         1 <0>         0.1264
     51 H24       -13.0022   -3.5051   -7.1707 H         1 <0>         0.0592
     52 H25       -12.7041   -1.8044   -6.7382 H         1 <0>         0.0596
     53 H26       -12.8794   -2.2706   -8.4471 H         1 <0>         0.1073
     54 H27        -7.7755   -7.4731    1.2953 H         1 <0>         0.4657
@<TRIPOS>BOND
     1    1    2 1
     2    1   28 1
     3    1   29 1
     4    1   30 1
     5    2    3 1
     6    3    8 ar
     7    3    4 ar
     8    4    5 ar
     9    4   31 1
    10    5    6 ar
    11    5   32 1
    12    6    7 ar
    13    6    9 1
    14    7    8 ar
    15    7   33 1
    16    8   34 1
    17    9   10 1
    18    9   35 1
    19    9   36 1
    20   10   11 1
    21   10   37 1
    22   10   38 1
    23   11   12 1
    24   11   39 1
    25   11   40 1
    26   12   13 1
    27   13   14 1
    28   13   20 1
    29   13   41 1
    30   14   15 1
    31   14   42 1
    32   14   43 1
    33   15   19 1
    34   15   16 1
    35   16   17 2
    36   16   44 1
    37   17   18 1
    38   17   45 1
    39   18   19 2
    40   18   54 1
    41   19   46 1
    42   20   25 ar
    43   20   21 ar
    44   21   22 ar
    45   21   47 1
    46   22   23 ar
    47   22   48 1
    48   23   24 ar
    49   23   26 1
    50   24   25 ar
    51   24   49 1
    52   25   50 1
    53   26   27 1
    54   27   51 1
    55   27   52 1
    56   27   53 1
@<TRIPOS>MOLECULE
CHEMBL258502
   53    55     0     0     0
SMALL
USER_CHARGES

@<TRIPOS>ATOM
      1 C1         -0.0173    1.4248    0.0099 C.3       1 <0>         0.0269
      2 O1          0.0021   -0.0041    0.0020 O.3       1 <0>        -0.3185
      3 C2          0.6258   -0.6184    1.0415 C.ar      1 <0>         0.1233
      4 C3          1.2022    0.1384    2.0513 C.ar      1 <0>        -0.2061
      5 C4          1.8353   -0.4884    3.1070 C.ar      1 <0>        -0.0759
      6 C5          1.8951   -1.8688    3.1577 C.ar      1 <0>        -0.1183
      7 C6          1.3218   -2.6253    2.1523 C.ar      1 <0>        -0.0748
      8 C7          0.6822   -2.0034    1.0976 C.ar      1 <0>        -0.1495
      9 C8          2.5867   -2.5500    4.3104 C.3       1 <0>        -0.0716
     10 C9          1.5771   -2.8076    5.4307 C.3       1 <0>        -0.1076
     11 C10         2.2793   -3.4992    6.6010 C.3       1 <0>         0.0461
     12 O2          1.3363   -3.7398    7.6474 O.3       1 <0>        -0.3710
     13 C11         1.8928   -4.3858    8.7941 C.3       1 <0>         0.1287
     14 C12         1.7820   -5.9028    8.6288 C.3       1 <0>         0.0857
     15 N1          2.6119   -6.3330    7.5007 N.pl3     1 <0>        -0.4608
     16 C13         2.2184   -6.4296    6.1932 C.2       1 <0>        -0.0450
     17 C14         3.2870   -6.8595    5.4955 C.2       1 <0>        -0.0316
     18 N2          4.3052   -7.0210    6.3535 N.2       1 <0>        -0.4905
     19 C15         3.9096   -6.7027    7.5557 C.2       1 <0>         0.1767
     20 C16         1.1386   -3.9585   10.0269 C.ar      1 <0>        -0.1336
     21 C17        -0.2368   -3.8244    9.9826 C.ar      1 <0>        -0.0469
     22 C18        -0.9304   -3.4323   11.1111 C.ar      1 <0>        -0.1539
     23 C19        -0.2457   -3.1736   12.2897 C.ar      1 <0>         0.1366
     24 C20         1.1343   -3.3093   12.3316 C.ar      1 <0>        -0.2092
     25 C21         1.8227   -3.7066   11.2017 C.ar      1 <0>        -0.0644
     26 O3         -0.9258   -2.7873   13.4011 O.3       1 <0>        -0.3162
     27 C22        -0.1558   -2.5379   14.5788 C.3       1 <0>         0.0256
     28 H1          1.0053    1.8021    0.0021 H         1 <0>         0.0556
     29 H2         -0.5445    1.7859   -0.8732 H         1 <0>         0.1009
     30 H3         -0.5275    1.7763    0.9067 H         1 <0>         0.0555
     31 H4          1.1564    1.2167    2.0118 H         1 <0>         0.1275
     32 H5          2.2842    0.1003    3.8934 H         1 <0>         0.1234
     33 H6          1.3701   -3.7035    2.1940 H         1 <0>         0.1298
     34 H7          0.2307   -2.5948    0.3148 H         1 <0>         0.1309
     35 H8          3.0056   -3.4983    3.9736 H         1 <0>         0.0756
     36 H9          3.3874   -1.9109    4.6827 H         1 <0>         0.0709
     37 H10         1.1582   -1.8593    5.7675 H         1 <0>         0.0695
     38 H11         0.7764   -3.4467    5.0584 H         1 <0>         0.0718
     39 H12         2.6982   -4.4475    6.2643 H         1 <0>         0.0708
     40 H13         3.0799   -2.8601    6.9733 H         1 <0>         0.0445
     41 H14         2.9417   -4.1070    8.8950 H         1 <0>         0.0746
     42 H15         2.1246   -6.3936    9.5398 H         1 <0>         0.1045
     43 H16         0.7431   -6.1728    8.4393 H         1 <0>         0.1026
     44 H17         1.2391   -6.2046    5.7974 H         1 <0>         0.1729
     45 H18         3.3186   -7.0422    4.4315 H         1 <0>         0.1692
     46 H19         4.5184   -6.7325    8.4472 H         1 <0>         0.2022
     47 H20        -0.7693   -4.0260    9.0649 H         1 <0>         0.1352
     48 H21        -2.0047   -3.3270   11.0759 H         1 <0>         0.1338
     49 H22         1.6695   -3.1084   13.2479 H         1 <0>         0.1314
     50 H23         2.8966   -3.8167   11.2351 H         1 <0>         0.1262
     51 H24         0.5610   -1.7407   14.3822 H         1 <0>         0.0569
     52 H25        -0.8193   -2.2381   15.3900 H         1 <0>         0.1024
     53 H26         0.3782   -3.4448   14.8626 H         1 <0>         0.0570
@<TRIPOS>BOND
     1    1    2 1
     2    1   28 1
     3    1   29 1
     4    1   30 1
     5    2    3 1
     6    3    8 ar
     7    3    4 ar
     8    4    5 ar
     9    4   31 1
    10    5    6 ar
    11    5   32 1
    12    6    7 ar
    13    6    9 1
    14    7    8 ar
    15    7   33 1
    16    8   34 1
    17    9   10 1
    18    9   35 1
    19    9   36 1
    20   10   11 1
    21   10   37 1
    22   10   38 1
    23   11   12 1
    24   11   39 1
    25   11   40 1
    26   12   13 1
    27   13   14 1
    28   13   20 1
    29   13   41 1
    30   14   15 1
    31   14   42 1
    32   14   43 1
    33   15   19 1
    34   15   16 1
    35   16   17 2
    36   16   44 1
    37   17   18 1
    38   17   45 1
    39   18   19 2
    40   19   46 1
    41   20   25 ar
    42   20   21 ar
    43   21   22 ar
    44   21   47 1
    45   22   23 ar
    46   22   48 1
    47   23   24 ar
    48   23   26 1
    49   24   25 ar
    50   24   49 1
    51   25   50 1
    52   26   27 1
    53   27   51 1
    54   27   52 1
    55   27   53 1
@<TRIPOS>MOLECULE
CHEMBL258502
   54    56     0     0     0
SMALL
USER_CHARGES

@<TRIPOS>ATOM
      1 C1         -0.0173    1.4248    0.0099 C.3       1 <0>         0.0257
      2 O1          0.0021   -0.0041    0.0020 O.3       1 <0>        -0.3151
      3 C2         -1.2003   -0.6375    0.0101 C.ar      1 <0>         0.1331
      4 C3         -2.3746    0.1011    0.0195 C.ar      1 <0>        -0.2071
      5 C4         -3.5956   -0.5451    0.0272 C.ar      1 <0>        -0.0762
      6 C5         -3.6478   -1.9268    0.0260 C.ar      1 <0>        -0.1326
      7 C6         -2.4788   -2.6651    0.0172 C.ar      1 <0>        -0.0724
      8 C7         -1.2554   -2.0237    0.0032 C.ar      1 <0>        -0.1471
      9 C8         -4.9811   -2.6292    0.0350 C.3       1 <0>        -0.0666
     10 C9         -5.4428   -2.8652   -1.4045 C.3       1 <0>        -0.1177
     11 C10        -6.7965   -3.5783   -1.3954 C.3       1 <0>         0.0560
     12 O2         -7.2277   -3.7988   -2.7398 O.3       1 <0>        -0.3648
     13 C11        -8.4889   -4.4626   -2.8442 C.3       1 <0>         0.1310
     14 C12        -9.6112   -3.4233   -2.8751 C.3       1 <0>         0.0708
     15 N1         -9.6528   -2.7112   -1.5955 N.pl3     1 <0>        -0.4103
     16 C13       -10.3761   -3.0692   -0.4899 C.2       1 <0>         0.0226
     17 C14       -10.1247   -2.1446    0.4564 C.2       1 <0>         0.0052
     18 N2         -9.2711   -1.2466   -0.0574 N.pl3     1 <0>        -0.4781
     19 C15        -8.9801   -1.5823   -1.2844 C.cat     1 <0>         0.2932
     20 C16        -8.5241   -5.2779   -4.1112 C.ar      1 <0>        -0.1549
     21 C17        -7.8807   -4.8185   -5.2455 C.ar      1 <0>        -0.0430
     22 C18        -7.9119   -5.5637   -6.4083 C.ar      1 <0>        -0.1537
     23 C19        -8.5891   -6.7742   -6.4371 C.ar      1 <0>         0.1509
     24 C20        -9.2335   -7.2331   -5.2974 C.ar      1 <0>        -0.2092
     25 C21        -9.1949   -6.4866   -4.1356 C.ar      1 <0>        -0.0596
     26 O3         -8.6217   -7.5089   -7.5799 O.3       1 <0>        -0.3119
     27 C22        -9.3376   -8.7448   -7.5364 C.3       1 <0>         0.0234
     28 H1          1.0053    1.8021    0.0021 H         1 <0>         0.1049
     29 H2         -0.5445    1.7859   -0.8732 H         1 <0>         0.0568
     30 H3         -0.5275    1.7763    0.9067 H         1 <0>         0.0569
     31 H4         -2.3343    1.1803    0.0211 H         1 <0>         0.1298
     32 H5         -4.5101    0.0294    0.0345 H         1 <0>         0.1191
     33 H6         -2.5223   -3.7443    0.0166 H         1 <0>         0.1296
     34 H7         -0.3427   -2.6008   -0.0082 H         1 <0>         0.1344
     35 H8         -4.8840   -3.5865    0.5470 H         1 <0>         0.0756
     36 H9         -5.7136   -2.0117    0.5548 H         1 <0>         0.0635
     37 H10        -5.5399   -1.9079   -1.9165 H         1 <0>         0.0740
     38 H11        -4.7104   -3.4827   -1.9243 H         1 <0>         0.0845
     39 H12        -6.6994   -4.5356   -0.8833 H         1 <0>         0.0619
     40 H13        -7.5289   -2.9608   -0.8755 H         1 <0>         0.0289
     41 H14        -8.6258   -5.1198   -1.9854 H         1 <0>         0.0851
     42 H15        -9.4262   -2.7126   -3.6806 H         1 <0>         0.1318
     43 H16       -10.5650   -3.9234   -3.0438 H         1 <0>         0.1360
     44 H17       -11.0242   -3.9279   -0.3949 H         1 <0>         0.2236
     45 H18       -10.5379   -2.1289    1.4541 H         1 <0>         0.2250
     46 H19        -8.3138   -1.0449   -1.9429 H         1 <0>         0.2577
     47 H20        -7.3537   -3.8761   -5.2226 H         1 <0>         0.1368
     48 H21        -7.4098   -5.2041   -7.2943 H         1 <0>         0.1380
     49 H22        -9.7614   -8.1751   -5.3173 H         1 <0>         0.1357
     50 H23        -9.6927   -6.8456   -3.2469 H         1 <0>         0.1268
     51 H24        -8.8942   -9.3953   -6.7825 H         1 <0>         0.0597
     52 H25       -10.3799   -8.5522   -7.2823 H         1 <0>         0.0593
     53 H26        -9.2849   -9.2298   -8.5111 H         1 <0>         0.1073
     54 H27        -8.9222   -0.4718    0.4105 H         1 <0>         0.4653
@<TRIPOS>BOND
     1    1    2 1
     2    1   28 1
     3    1   29 1
     4    1   30 1
     5    2    3 1
     6    3    8 ar
     7    3    4 ar
     8    4    5 ar
     9    4   31 1
    10    5    6 ar
    11    5   32 1
    12    6    7 ar
    13    6    9 1
    14    7    8 ar
    15    7   33 1
    16    8   34 1
    17    9   10 1
    18    9   35 1
    19    9   36 1
    20   10   11 1
    21   10   37 1
    22   10   38 1
    23   11   12 1
    24   11   39 1
    25   11   40 1
    26   12   13 1
    27   13   14 1
    28   13   20 1
    29   13   41 1
    30   14   15 1
    31   14   42 1
    32   14   43 1
    33   15   19 1
    34   15   16 1
    35   16   17 2
    36   16   44 1
    37   17   18 1
    38   17   45 1
    39   18   19 2
    40   18   54 1
    41   19   46 1
    42   20   25 ar
    43   20   21 ar
    44   21   22 ar
    45   21   47 1
    46   22   23 ar
    47   22   48 1
    48   23   24 ar
    49   23   26 1
    50   24   25 ar
    51   24   49 1
    52   25   50 1
    53   26   27 1
    54   27   51 1
    55   27   52 1
    56   27   53 1
@<TRIPOS>MOLECULE
CHEMBL258502
   53    55     0     0     0
SMALL
USER_CHARGES

@<TRIPOS>ATOM
      1 C1         -0.0173    1.4248    0.0099 C.3       1 <0>         0.0269
      2 O1          0.0021   -0.0041    0.0020 O.3       1 <0>        -0.3189
      3 C2          0.6258   -0.6184    1.0415 C.ar      1 <0>         0.1230
      4 C3          1.2022    0.1384    2.0513 C.ar      1 <0>        -0.2057
      5 C4          1.8353   -0.4884    3.1070 C.ar      1 <0>        -0.0736
      6 C5          1.8951   -1.8688    3.1577 C.ar      1 <0>        -0.1180
      7 C6          1.3218   -2.6253    2.1523 C.ar      1 <0>        -0.0765
      8 C7          0.6822   -2.0034    1.0976 C.ar      1 <0>        -0.1502
      9 C8          2.5867   -2.5500    4.3104 C.3       1 <0>        -0.0721
     10 C9          1.5771   -2.8076    5.4307 C.3       1 <0>        -0.1078
     11 C10         2.2793   -3.4992    6.6010 C.3       1 <0>         0.0484
     12 O2          1.3363   -3.7398    7.6474 O.3       1 <0>        -0.3714
     13 C11         1.8928   -4.3858    8.7941 C.3       1 <0>         0.1290
     14 C12         2.4008   -3.3300    9.7780 C.3       1 <0>         0.0859
     15 N1          3.5116   -2.5919    9.1717 N.pl3     1 <0>        -0.4614
     16 C13         4.8394   -2.9161    9.2470 C.2       1 <0>        -0.0611
     17 C14         5.5098   -1.9769    8.5528 C.2       1 <0>        -0.0266
     18 N2          4.6158   -1.1031    8.0668 N.2       1 <0>        -0.4931
     19 C15         3.4164   -1.4679    8.4293 C.2       1 <0>         0.1904
     20 C16         0.8339   -5.2256    9.4609 C.ar      1 <0>        -0.1340
     21 C17        -0.4813   -4.7991    9.4693 C.ar      1 <0>        -0.0463
     22 C18        -1.4538   -5.5668   10.0802 C.ar      1 <0>        -0.1538
     23 C19        -1.1099   -6.7669   10.6853 C.ar      1 <0>         0.1364
     24 C20         0.2104   -7.1929   10.6752 C.ar      1 <0>        -0.2093
     25 C21         1.1783   -6.4240   10.0584 C.ar      1 <0>        -0.0654
     26 O3         -2.0646   -7.5237   11.2874 O.3       1 <0>        -0.3161
     27 C22        -1.6381   -8.7473   11.8900 C.3       1 <0>         0.0257
     28 H1          1.0053    1.8021    0.0021 H         1 <0>         0.0558
     29 H2         -0.5445    1.7859   -0.8732 H         1 <0>         0.1006
     30 H3         -0.5275    1.7763    0.9067 H         1 <0>         0.0557
     31 H4          1.1564    1.2167    2.0118 H         1 <0>         0.1279
     32 H5          2.2842    0.1003    3.8934 H         1 <0>         0.1260
     33 H6          1.3701   -3.7035    2.1940 H         1 <0>         0.1280
     34 H7          0.2307   -2.5948    0.3148 H         1 <0>         0.1301
     35 H8          3.0056   -3.4983    3.9736 H         1 <0>         0.0710
     36 H9          3.3874   -1.9109    4.6827 H         1 <0>         0.0762
     37 H10         1.1582   -1.8593    5.7675 H         1 <0>         0.0717
     38 H11         0.7764   -3.4467    5.0584 H         1 <0>         0.0710
     39 H12         2.6982   -4.4475    6.2643 H         1 <0>         0.0460
     40 H13         3.0799   -2.8601    6.9733 H         1 <0>         0.0671
     41 H14         2.7213   -5.0235    8.4856 H         1 <0>         0.0748
     42 H15         1.5931   -2.6385   10.0179 H         1 <0>         0.1046
     43 H16         2.7439   -3.8184   10.6900 H         1 <0>         0.1025
     44 H17         5.2671   -3.7623    9.7642 H         1 <0>         0.1727
     45 H18         6.5797   -1.9348    8.4120 H         1 <0>         0.1692
     46 H19         2.4998   -0.9545    8.1792 H         1 <0>         0.2011
     47 H20        -0.7485   -3.8647    8.9980 H         1 <0>         0.1369
     48 H21        -2.4808   -5.2329   10.0871 H         1 <0>         0.1339
     49 H22         0.4806   -8.1267   11.1456 H         1 <0>         0.1312
     50 H23         2.2055   -6.7573   10.0463 H         1 <0>         0.1254
     51 H24        -0.9021   -8.5333   12.6650 H         1 <0>         0.0568
     52 H25        -2.4963   -9.2523   12.3334 H         1 <0>         0.1024
     53 H26        -1.1907   -9.3894   11.1313 H         1 <0>         0.0569
@<TRIPOS>BOND
     1    1    2 1
     2    1   28 1
     3    1   29 1
     4    1   30 1
     5    2    3 1
     6    3    8 ar
     7    3    4 ar
     8    4    5 ar
     9    4   31 1
    10    5    6 ar
    11    5   32 1
    12    6    7 ar
    13    6    9 1
    14    7    8 ar
    15    7   33 1
    16    8   34 1
    17    9   10 1
    18    9   35 1
    19    9   36 1
    20   10   11 1
    21   10   37 1
    22   10   38 1
    23   11   12 1
    24   11   39 1
    25   11   40 1
    26   12   13 1
    27   13   14 1
    28   13   20 1
    29   13   41 1
    30   14   15 1
    31   14   42 1
    32   14   43 1
    33   15   19 1
    34   15   16 1
    35   16   17 2
    36   16   44 1
    37   17   18 1
    38   17   45 1
    39   18   19 2
    40   19   46 1
    41   20   25 ar
    42   20   21 ar
    43   21   22 ar
    44   21   47 1
    45   22   23 ar
    46   22   48 1
    47   23   24 ar
    48   23   26 1
    49   24   25 ar
    50   24   49 1
    51   25   50 1
    52   26   27 1
    53   27   51 1
    54   27   52 1
    55   27   53 1
@<TRIPOS>MOLECULE
CHEMBL375955
   41    43     0     0     0
SMALL
USER_CHARGES

@<TRIPOS>ATOM
      1 C1          1.0683   -0.4248    0.6826 C.ar      1 <0>        -0.0848
      2 C2          2.2585    0.2761    0.6687 C.ar      1 <0>        -0.1083
      3 C3          2.3882    1.4068   -0.1272 C.ar      1 <0>         0.1649
      4 C4          1.3197    1.8297   -0.9075 C.ar      1 <0>        -0.1337
      5 C5          0.1314    1.1243   -0.8894 C.ar      1 <0>        -0.0140
      6 C6          0.0061   -0.0022   -0.0948 C.ar      1 <0>        -0.1200
      7 Cl1        -1.2051    1.6514   -1.8640 Cl        1 <0>        -0.0596
      8 N1          3.5916    2.1183   -0.1428 N.pl3     1 <0>        -0.6187
      9 C7          4.7904    1.4504    0.0088 C.ar      1 <0>         0.5861
     10 N2          4.7872    0.1244    0.0580 N.ar      1 <0>        -0.5330
     11 C8          5.9115   -0.5509    0.2015 C.ar      1 <0>         0.2383
     12 C9          7.1190    0.1531    0.3022 C.ar      1 <0>        -0.2583
     13 C10         7.0779    1.5523    0.2456 C.ar      1 <0>         0.1987
     14 N3          5.9124    2.1528    0.0955 N.ar      1 <0>        -0.5230
     15 C11         8.3464    2.3594    0.3489 C.3       1 <0>         0.5310
     16 F1          9.2293    1.9723   -0.6649 F         1 <0>        -0.1531
     17 F2          8.0464    3.7190    0.2121 F         1 <0>        -0.1630
     18 F3          8.9409    2.1362    1.5955 F         1 <0>        -0.1505
     19 C12         8.4002   -0.5607    0.4642 C.2       1 <0>         0.5698
     20 O1          9.4255    0.0654    0.6519 O.2       1 <0>        -0.5091
     21 N4          8.4340   -1.9067    0.4040 N.am      1 <0>        -0.7175
     22 C13         9.7061   -2.6154    0.5648 C.3       1 <0>         0.1621
     23 C14         9.4711   -4.1001    0.4567 C.ar      1 <0>        -0.0690
     24 C15         9.1744   -4.8554    1.5808 C.ar      1 <0>        -0.1540
     25 C16         8.9652   -6.2146    1.4430 C.ar      1 <0>         0.1003
     26 N5          9.0455   -6.7929    0.2606 N.ar      1 <0>        -0.4780
     27 C17         9.3256   -6.1061   -0.8297 C.ar      1 <0>         0.1005
     28 C18         9.5410   -4.7422   -0.7702 C.ar      1 <0>        -0.1538
     29 H1          0.9689   -1.3066    1.2981 H         1 <0>         0.1391
     30 H2          3.0876   -0.0548    1.2767 H         1 <0>         0.1404
     31 H3          1.4173    2.7088   -1.5272 H         1 <0>         0.1390
     32 H4         -0.9232   -0.5522   -0.0823 H         1 <0>         0.1376
     33 H5          3.5844    3.0811   -0.2600 H         1 <0>         0.4327
     34 H6          5.9013   -1.6302    0.2412 H         1 <0>         0.1865
     35 H7          7.6161   -2.4062    0.2542 H         1 <0>         0.4007
     36 H8         10.3991   -2.2995   -0.2149 H         1 <0>         0.0883
     37 H9         10.1294   -2.3848    1.5424 H         1 <0>         0.0885
     38 H10         9.1079   -4.3877    2.5520 H         1 <0>         0.1389
     39 H11         8.7336   -6.8100    2.3138 H         1 <0>         0.1596
     40 H12         9.3833   -6.6145   -1.7808 H         1 <0>         0.1595
     41 H13         9.7650   -4.1843   -1.6674 H         1 <0>         0.1388
@<TRIPOS>BOND
     1    1    6 ar
     2    1    2 ar
     3    1   29 1
     4    2    3 ar
     5    2   30 1
     6    3    4 ar
     7    3    8 1
     8    4    5 ar
     9    4   31 1
    10    5    6 ar
    11    5    7 1
    12    6   32 1
    13    8    9 1
    14    8   33 1
    15    9   14 ar
    16    9   10 ar
    17   10   11 ar
    18   11   12 ar
    19   11   34 1
    20   12   13 ar
    21   12   19 1
    22   13   14 ar
    23   13   15 1
    24   15   16 1
    25   15   17 1
    26   15   18 1
    27   19   20 2
    28   19   21 am
    29   21   22 1
    30   21   35 1
    31   22   23 1
    32   22   36 1
    33   22   37 1
    34   23   28 ar
    35   23   24 ar
    36   24   25 ar
    37   24   38 1
    38   25   26 ar
    39   25   39 1
    40   26   27 ar
    41   27   28 ar
    42   27   40 1
    43   28   41 1
@<TRIPOS>MOLECULE
CHEMBL254497
   70    73     0     0     0
SMALL
USER_CHARGES

@<TRIPOS>ATOM
      1 C1         -0.0187    1.5258    0.0104 C.3       1 <0>        -0.1849
      2 C2          0.0021   -0.0041    0.0020 C.3       1 <0>         0.1375
      3 C3          0.7421   -0.5109    1.2415 C.3       1 <0>        -0.1857
      4 C4         -1.4333   -0.5336    0.0129 C.3       1 <0>        -0.1409
      5 O1          0.6709   -0.4649   -1.1737 O.3       1 <0>        -0.3600
      6 C5          1.9522   -0.0848   -1.3367 C.2       1 <0>         0.6570
      7 O2          2.4879    0.6189   -0.5034 O.2       1 <0>        -0.5363
      8 N1          2.6407   -0.4850   -2.4240 N.am      1 <0>        -0.6996
      9 C6          4.0349   -0.0714   -2.6014 C.3       1 <0>         0.1513
     10 H1          4.4222   -0.4886   -3.5309 H         1 <0>         0.1309
     11 C7          4.8715   -0.5810   -1.4260 C.3       1 <0>        -0.1198
     12 C8          4.8972   -2.0876   -1.4437 C.ar      1 <0>        -0.0269
     13 C9          3.9887   -2.8035   -0.6863 C.ar      1 <0>        -0.1066
     14 C10         4.0123   -4.1853   -0.7025 C.ar      1 <0>        -0.0808
     15 C11         4.9442   -4.8517   -1.4764 C.ar      1 <0>        -0.1203
     16 C12         5.8519   -4.1361   -2.2342 C.ar      1 <0>        -0.0686
     17 C13         5.8255   -2.7539   -2.2214 C.ar      1 <0>        -0.1854
     18 C14         6.8117   -1.9736   -3.0518 C.3       1 <0>         0.5081
     19 F1          7.6414   -2.8606   -3.7461 F         1 <0>        -0.1723
     20 F2          6.1201   -1.1704   -3.9648 F         1 <0>        -0.1797
     21 F3          7.5893   -1.1656   -2.2153 F         1 <0>        -0.1702
     22 C15         4.1096    1.4328   -2.6563 C.2       1 <0>         0.5068
     23 O3          3.2028    2.1017   -2.2078 O.2       1 <0>        -0.4916
     24 N2          5.1841    2.0346   -3.2038 N.am      1 <0>        -0.7286
     25 C16         5.2567    3.4968   -3.2572 C.3       1 <0>         0.2016
     26 C17         6.5489    3.9120   -3.9121 C.2       1 <0>         0.2729
     27 N3          7.6687    4.1230   -3.2842 N.2       1 <0>        -0.4588
     28 C18         8.6271    4.4806   -4.1754 C.ar      1 <0>        -0.0025
     29 C19         9.9800    4.8153   -4.0615 C.ar      1 <0>        -0.0137
     30 C20        10.6715    5.1365   -5.2138 C.ar      1 <0>        -0.1843
     31 C21        10.0134    5.1180   -6.4337 C.ar      1 <0>         0.1438
     32 N4          8.7384    4.8003   -6.5198 N.ar      1 <0>        -0.4815
     33 C22         8.0290    4.4841   -5.4481 C.ar      1 <0>         0.2501
     34 N5          6.7163    4.1154   -5.2476 N.pl3     1 <0>        -0.4644
     35 C23         5.6887    3.9713   -6.2818 C.3       1 <0>         0.1521
     36 C24         4.9804    5.2876   -6.4731 C.ar      1 <0>        -0.1225
     37 C25         3.8600    5.5854   -5.7201 C.ar      1 <0>        -0.1025
     38 C26         3.2103    6.7928   -5.8956 C.ar      1 <0>        -0.1196
     39 C27         3.6812    7.7027   -6.8236 C.ar      1 <0>        -0.1063
     40 C28         4.8022    7.4053   -7.5759 C.ar      1 <0>        -0.1212
     41 C29         5.4544    6.1996   -7.3974 C.ar      1 <0>        -0.0894
     42 H2          1.0039    1.9031    0.0027 H         1 <0>         0.0938
     43 H3         -0.5459    1.8868   -0.8726 H         1 <0>         0.0571
     44 H4         -0.5289    1.8773    0.9072 H         1 <0>         0.0662
     45 H5          0.2319   -0.1594    2.1383 H         1 <0>         0.0696
     46 H6          0.7568   -1.6008    1.2356 H         1 <0>         0.0573
     47 H7          1.7647   -0.1336    1.2338 H         1 <0>         0.0878
     48 H8         -1.9605   -0.1726   -0.8702 H         1 <0>         0.0659
     49 H9         -1.4185   -1.6235    0.0069 H         1 <0>         0.0653
     50 H10        -1.9435   -0.1821    0.9097 H         1 <0>         0.0799
     51 H11         2.2131   -1.0467   -3.0892 H         1 <0>         0.4115
     52 H12         5.8888   -0.1992   -1.5116 H         1 <0>         0.0971
     53 H13         4.4315   -0.2360   -0.4903 H         1 <0>         0.1194
     54 H14         3.2607   -2.2829   -0.0818 H         1 <0>         0.1304
     55 H15         3.3030   -4.7445   -0.1103 H         1 <0>         0.1339
     56 H16         4.9631   -5.9315   -1.4885 H         1 <0>         0.1365
     57 H17         6.5800   -4.6567   -2.8385 H         1 <0>         0.1398
     58 H18         5.9093    1.4995   -3.5625 H         1 <0>         0.4030
     59 H19         4.4164    3.8814   -3.8353 H         1 <0>         0.0922
     60 H20         5.2163    3.8998   -2.2453 H         1 <0>         0.1107
     61 H21        10.4708    4.8230   -3.0995 H         1 <0>         0.1431
     62 H22        11.7175    5.4005   -5.1644 H         1 <0>         0.1463
     63 H23        10.5576    5.3696   -7.3320 H         1 <0>         0.1675
     64 H24         6.1565    3.6708   -7.2193 H         1 <0>         0.1080
     65 H25         4.9688    3.2124   -5.9754 H         1 <0>         0.1020
     66 H26         3.4921    4.8745   -4.9951 H         1 <0>         0.1226
     67 H27         2.3345    7.0252   -5.3078 H         1 <0>         0.1268
     68 H28         3.1732    8.6458   -6.9612 H         1 <0>         0.1254
     69 H29         5.1699    8.1160   -8.3012 H         1 <0>         0.1257
     70 H30         6.3323    5.9688   -7.9825 H         1 <0>         0.1277
@<TRIPOS>BOND
     1    1    2 1
     2    1   42 1
     3    1   43 1
     4    1   44 1
     5    2    3 1
     6    2    4 1
     7    2    5 1
     8    3   45 1
     9    3   46 1
    10    3   47 1
    11    4   48 1
    12    4   49 1
    13    4   50 1
    14    5    6 1
    15    6    7 2
    16    6    8 am
    17    8    9 1
    18    8   51 1
    19    9   10 1
    20    9   11 1
    21    9   22 1
    22   11   12 1
    23   11   52 1
    24   11   53 1
    25   12   17 ar
    26   12   13 ar
    27   13   14 ar
    28   13   54 1
    29   14   15 ar
    30   14   55 1
    31   15   16 ar
    32   15   56 1
    33   16   17 ar
    34   16   57 1
    35   17   18 1
    36   18   19 1
    37   18   20 1
    38   18   21 1
    39   22   23 2
    40   22   24 am
    41   24   25 1
    42   24   58 1
    43   25   26 1
    44   25   59 1
    45   25   60 1
    46   26   34 1
    47   26   27 2
    48   27   28 1
    49   28   33 ar
    50   28   29 ar
    51   29   30 ar
    52   29   61 1
    53   30   31 ar
    54   30   62 1
    55   31   32 ar
    56   31   63 1
    57   32   33 ar
    58   33   34 1
    59   34   35 1
    60   35   36 1
    61   35   64 1
    62   35   65 1
    63   36   41 ar
    64   36   37 ar
    65   37   38 ar
    66   37   66 1
    67   38   39 ar
    68   38   67 1
    69   39   40 ar
    70   39   68 1
    71   40   41 ar
    72   40   69 1
    73   41   70 1
@<TRIPOS>MOLECULE
CHEMBL567904
   69    73     0     0     0
SMALL
USER_CHARGES

@<TRIPOS>ATOM
      1 C1         -8.1899   -3.9972   -0.3618 C.3       1 <0>        -0.0738
      2 C2         -6.8082   -4.5909   -0.2651 C.2       1 <0>         0.0124
      3 C3         -5.6921   -3.8975   -0.0023 C.2       1 <0>        -0.2140
      4 C4         -4.5944   -4.8723   -0.0047 C.ar      1 <0>        -0.1088
      5 C5         -3.2178   -4.7880    0.1976 C.ar      1 <0>        -0.1550
      6 C6         -2.4461   -5.9336    0.1230 C.ar      1 <0>         0.1825
      7 C7         -3.0429   -7.1621   -0.1530 C.ar      1 <0>        -0.1456
      8 C8         -4.4024   -7.2521   -0.3544 C.ar      1 <0>        -0.0983
      9 C9         -5.1936   -6.1120   -0.2824 C.ar      1 <0>         0.0034
     10 O1         -6.5175   -5.8937   -0.4243 O.3       1 <0>        -0.2018
     11 N1         -1.0621   -5.8585    0.3249 N.pl3     1 <0>        -0.6543
     12 C10        -0.2782   -6.9513    0.0923 C.2       1 <0>         0.6286
     13 N2          1.0404   -6.8475    0.1624 N.2       1 <0>        -0.7141
     14 C11         1.6125   -5.6411    0.2686 C.2       1 <0>         0.5168
     15 O2          0.9312   -4.6346    0.1871 O.2       1 <0>        -0.6307
     16 C12         3.0735   -5.5308    0.4851 C.ar      1 <0>        -0.1335
     17 C13         3.6678   -4.2832    0.7052 C.ar      1 <0>        -0.0421
     18 C14         5.0366   -4.2342    0.9020 C.ar      1 <0>        -0.1899
     19 C15         5.7668   -5.4089    0.8751 C.ar      1 <0>         0.0947
     20 N3          5.1790   -6.5710    0.6649 N.ar      1 <0>        -0.4990
     21 C16         3.8789   -6.6691    0.4786 C.ar      1 <0>         0.1480
     22 N4         -0.8528   -8.1504   -0.2124 N.2       1 <0>        -0.6716
     23 C17        -0.0114   -9.3234   -0.4621 C.3       1 <0>         0.1234
     24 H1          0.5890   -9.5383    0.4219 H         1 <0>         0.0557
     25 C18        -0.8948  -10.5297   -0.7895 C.3       1 <0>        -0.0952
     26 C19        -0.1756  -11.8266   -0.4654 C.3       1 <0>        -0.1131
     27 C20         1.0295  -12.0961   -1.3479 C.3       1 <0>        -0.1483
     28 C21         2.1379  -11.0752   -1.0840 C.3       1 <0>         0.1202
     29 N5          1.8976   -9.8910   -1.9245 N.am      1 <0>        -0.6028
     30 C22         0.8987   -9.0549   -1.6422 C.2       1 <0>         0.5281
     31 O3          0.7152   -8.0778   -2.3369 O.2       1 <0>        -0.5293
     32 C23         2.7650   -9.6271   -3.0752 C.3       1 <0>         0.1044
     33 C24         2.1964  -10.3002   -4.2978 C.2       1 <0>         0.5145
     34 O4          1.1678  -10.9375   -4.2160 O.2       1 <0>        -0.5220
     35 N6          2.8308  -10.1938   -5.4821 N.am      1 <0>        -0.6255
     36 C25         4.0829   -9.4610   -5.7206 C.3       1 <0>         0.0976
     37 C26         4.4130   -9.5945   -7.2222 C.3       1 <0>        -0.1308
     38 C27         3.0333   -9.9183   -7.8539 C.3       1 <0>        -0.1345
     39 C28         2.3877  -10.7984   -6.7516 C.3       1 <0>         0.1062
     40 H2         -8.9098   -4.7861   -0.5800 H         1 <0>         0.0736
     41 H3         -8.4480   -3.5214    0.5843 H         1 <0>         0.0823
     42 H4         -8.2114   -3.2549   -1.1596 H         1 <0>         0.0823
     43 H5         -5.6154   -2.8350    0.1753 H         1 <0>         0.1462
     44 H6         -2.7569   -3.8349    0.4108 H         1 <0>         0.1143
     45 H7         -2.4337   -8.0520   -0.2100 H         1 <0>         0.2356
     46 H8         -4.8540   -8.2095   -0.5684 H         1 <0>         0.1204
     47 H9         -0.6607   -5.0299    0.6301 H         1 <0>         0.4202
     48 H10         3.0734   -3.3817    0.7207 H         1 <0>         0.1367
     49 H11         5.5296   -3.2889    1.0744 H         1 <0>         0.1301
     50 H12         6.8353   -5.3739    1.0284 H         1 <0>         0.1492
     51 H13         3.4333   -7.6391    0.3144 H         1 <0>         0.1667
     52 H14        -1.8123  -10.4721   -0.2038 H         1 <0>         0.0734
     53 H15        -1.1454  -10.5137   -1.8502 H         1 <0>         0.0572
     54 H16         0.1544  -11.7913    0.5729 H         1 <0>         0.0564
     55 H17        -0.8792  -12.6517   -0.5758 H         1 <0>         0.0559
     56 H18         1.4078  -13.0973   -1.1418 H         1 <0>         0.0609
     57 H19         0.7284  -12.0358   -2.3938 H         1 <0>         0.0897
     58 H20         2.1263  -10.7862   -0.0330 H         1 <0>         0.0770
     59 H21         3.1046  -11.5118   -1.3350 H         1 <0>         0.0711
     60 H22         2.8243   -8.5523   -3.2466 H         1 <0>         0.1069
     61 H23         3.7625  -10.0188   -2.8757 H         1 <0>         0.0956
     62 H24         3.9525   -8.4102   -5.4618 H         1 <0>         0.0700
     63 H25         4.8857   -9.8949   -5.1246 H         1 <0>         0.0688
     64 H26         4.8067   -8.6573   -7.6154 H         1 <0>         0.0817
     65 H27         5.1156  -10.4105   -7.3915 H         1 <0>         0.0758
     66 H28         2.4564   -9.0084   -8.0198 H         1 <0>         0.0762
     67 H29         3.1500  -10.4795   -8.7810 H         1 <0>         0.0821
     68 H30         2.7432  -11.8261   -6.8268 H         1 <0>         0.0645
     69 H31         1.3010  -10.7655   -6.8284 H         1 <0>         0.0760
@<TRIPOS>BOND
     1    1    2 1
     2    1   40 1
     3    1   41 1
     4    1   42 1
     5    2   10 1
     6    2    3 2
     7    3    4 1
     8    3   43 1
     9    4    9 ar
    10    4    5 ar
    11    5    6 ar
    12    5   44 1
    13    6    7 ar
    14    6   11 1
    15    7    8 ar
    16    7   45 1
    17    8    9 ar
    18    8   46 1
    19    9   10 1
    20   11   12 1
    21   11   47 1
    22   12   13 2
    23   12   22 1
    24   13   14 1
    25   14   15 2
    26   14   16 1
    27   16   21 ar
    28   16   17 ar
    29   17   18 ar
    30   17   48 1
    31   18   19 ar
    32   18   49 1
    33   19   20 ar
    34   19   50 1
    35   20   21 ar
    36   21   51 1
    37   22   23 1
    38   23   24 1
    39   23   30 1
    40   23   25 1
    41   25   26 1
    42   25   52 1
    43   25   53 1
    44   26   27 1
    45   26   54 1
    46   26   55 1
    47   27   28 1
    48   27   56 1
    49   27   57 1
    50   28   29 1
    51   28   58 1
    52   28   59 1
    53   29   30 am
    54   29   32 1
    55   30   31 2
    56   32   33 1
    57   32   60 1
    58   32   61 1
    59   33   34 2
    60   33   35 am
    61   35   39 1
    62   35   36 1
    63   36   37 1
    64   36   62 1
    65   36   63 1
    66   37   38 1
    67   37   64 1
    68   37   65 1
    69   38   39 1
    70   38   66 1
    71   38   67 1
    72   39   68 1
    73   39   69 1
@<TRIPOS>MOLECULE
CHEMBL567904
   70    74     0     0     0
SMALL
USER_CHARGES

@<TRIPOS>ATOM
      1 C1          5.6097   -1.3943    2.1424 C.3       1 <0>        -0.0833
      2 C2          4.5495   -2.3386    1.6371 C.2       1 <0>         0.0398
      3 C3          4.5548   -3.6661    1.8192 C.2       1 <0>        -0.2151
      4 C4          3.3429   -4.1739    1.1646 C.ar      1 <0>        -0.1096
      5 C5          2.7832   -5.4400    1.0009 C.ar      1 <0>        -0.0997
      6 C6          1.5932   -5.5754    0.3087 C.ar      1 <0>         0.1464
      7 C7          0.9605   -4.4524   -0.2207 C.ar      1 <0>        -0.0736
      8 C8          1.5085   -3.1988   -0.0628 C.ar      1 <0>        -0.0878
      9 C9          2.7027   -3.0435    0.6303 C.ar      1 <0>         0.0449
     10 O1          3.4584   -1.9705    0.9434 O.3       1 <0>        -0.1923
     11 N1          1.0234   -6.8437    0.1392 N.pl3     1 <0>        -0.6404
     12 C10        -0.3339   -6.9861    0.1285 C.2       1 <0>         0.7109
     13 N2         -1.1110   -5.9465    0.3925 N.2       1 <0>        -0.6792
     14 C11        -2.3983   -6.1362    0.7101 C.2       1 <0>         0.5537
     15 O2         -2.8225   -7.2645    0.8857 O.2       1 <0>        -0.5719
     16 C12        -3.3061   -4.9741    0.8479 C.ar      1 <0>        -0.1675
     17 C13        -4.6216   -5.1479    1.2921 C.ar      1 <0>        -0.0247
     18 C14        -5.4294   -4.0299    1.4036 C.ar      1 <0>        -0.1865
     19 C15        -4.9155   -2.7881    1.0755 C.ar      1 <0>         0.1200
     20 N3         -3.6710   -2.6549    0.6588 N.ar      1 <0>        -0.4944
     21 C16        -2.8623   -3.6880    0.5425 C.ar      1 <0>         0.1581
     22 N4         -0.8902   -8.1992   -0.1542 N.pl3     1 <0>        -0.6846
     23 C17        -0.0350   -9.3781   -0.3127 C.3       1 <0>         0.1150
     24 H1          0.8063   -9.3157    0.3775 H         1 <0>         0.1032
     25 C18        -0.8453  -10.6439   -0.0228 C.3       1 <0>        -0.1190
     26 C19         0.0655  -11.7770    0.4139 C.3       1 <0>        -0.1156
     27 C20         0.9987  -12.2684   -0.6775 C.3       1 <0>        -0.1559
     28 C21         2.0254  -11.1942   -1.0416 C.3       1 <0>         0.1074
     29 N5          1.4399  -10.3098   -2.0623 N.am      1 <0>        -0.5883
     30 C22         0.4782   -9.4467   -1.7356 C.2       1 <0>         0.5006
     31 O3          0.0090   -8.7170   -2.5832 O.2       1 <0>        -0.5208
     32 C23         1.9212  -10.3752   -3.4444 C.3       1 <0>         0.0981
     33 C24         1.1076  -11.3848   -4.2125 C.2       1 <0>         0.5140
     34 O4          0.2138  -11.9901   -3.6597 O.2       1 <0>        -0.5258
     35 N6          1.3732  -11.6150   -5.5136 N.am      1 <0>        -0.6199
     36 C25         2.4270  -10.9595   -6.3019 C.3       1 <0>         0.0951
     37 C26         2.3385  -11.5171   -7.7382 C.3       1 <0>        -0.1322
     38 C27         0.8786  -12.0362   -7.8201 C.3       1 <0>        -0.1351
     39 C28         0.6594  -12.5703   -6.3803 C.3       1 <0>         0.1052
     40 H2          5.3531   -0.3739    1.8576 H         1 <0>         0.0803
     41 H3          5.6707   -1.4640    3.2284 H         1 <0>         0.0906
     42 H4          6.5723   -1.6620    1.7065 H         1 <0>         0.0904
     43 H5          5.3009   -4.2460    2.3421 H         1 <0>         0.1568
     44 H6          3.2754   -6.3093    1.4113 H         1 <0>         0.1285
     45 H7          0.0319   -4.5662   -0.7602 H         1 <0>         0.1567
     46 H8          1.0095   -2.3356   -0.4781 H         1 <0>         0.1387
     47 H9          1.5935   -7.6207    0.0295 H         1 <0>         0.4129
     48 H10        -4.9969   -6.1294    1.5413 H         1 <0>         0.1427
     49 H11        -6.4502   -4.1258    1.7429 H         1 <0>         0.1402
     50 H12        -5.5435   -1.9136    1.1614 H         1 <0>         0.1591
     51 H13        -1.8481   -3.5383    0.2027 H         1 <0>         0.1695
     52 H14        -1.8519   -8.2812   -0.2502 H         1 <0>         0.4374
     53 H15        -1.5646  -10.4360    0.7694 H         1 <0>         0.0920
     54 H16        -1.3812  -10.9413   -0.9241 H         1 <0>         0.0806
     55 H17         0.6657  -11.4356    1.2573 H         1 <0>         0.0651
     56 H18        -0.5521  -12.6117    0.7456 H         1 <0>         0.0769
     57 H19         1.5206  -13.1594   -0.3284 H         1 <0>         0.0787
     58 H20         0.4141  -12.5201   -1.5624 H         1 <0>         0.0983
     59 H21         2.2767  -10.6128   -0.1545 H         1 <0>         0.0788
     60 H22         2.9238  -11.6667   -1.4388 H         1 <0>         0.0908
     61 H23         1.8192   -9.3955   -3.9113 H         1 <0>         0.1152
     62 H24         2.9696  -10.6732   -3.4504 H         1 <0>         0.1105
     63 H25         2.2660   -9.8815   -6.3122 H         1 <0>         0.0717
     64 H26         3.4042  -11.1865   -5.8758 H         1 <0>         0.0712
     65 H27         2.5085  -10.7271   -8.4697 H         1 <0>         0.0855
     66 H28         3.0466  -12.3337   -7.8792 H         1 <0>         0.0791
     67 H29         0.1877  -11.2247   -8.0488 H         1 <0>         0.0776
     68 H30         0.7902  -12.8401   -8.5509 H         1 <0>         0.0869
     69 H31         1.0841  -13.5687   -6.2748 H         1 <0>         0.0696
     70 H32        -0.4032  -12.5816   -6.1380 H         1 <0>         0.0784
@<TRIPOS>BOND
     1    1    2 1
     2    1   40 1
     3    1   41 1
     4    1   42 1
     5    2   10 1
     6    2    3 2
     7    3    4 1
     8    3   43 1
     9    4    9 ar
    10    4    5 ar
    11    5    6 ar
    12    5   44 1
    13    6    7 ar
    14    6   11 1
    15    7    8 ar
    16    7   45 1
    17    8    9 ar
    18    8   46 1
    19    9   10 1
    20   11   12 1
    21   11   47 1
    22   12   13 2
    23   12   22 1
    24   13   14 1
    25   14   15 2
    26   14   16 1
    27   16   21 ar
    28   16   17 ar
    29   17   18 ar
    30   17   48 1
    31   18   19 ar
    32   18   49 1
    33   19   20 ar
    34   19   50 1
    35   20   21 ar
    36   21   51 1
    37   22   23 1
    38   22   52 1
    39   23   24 1
    40   23   30 1
    41   23   25 1
    42   25   26 1
    43   25   53 1
    44   25   54 1
    45   26   27 1
    46   26   55 1
    47   26   56 1
    48   27   28 1
    49   27   57 1
    50   27   58 1
    51   28   29 1
    52   28   59 1
    53   28   60 1
    54   29   30 am
    55   29   32 1
    56   30   31 2
    57   32   33 1
    58   32   61 1
    59   32   62 1
    60   33   34 2
    61   33   35 am
    62   35   39 1
    63   35   36 1
    64   36   37 1
    65   36   63 1
    66   36   64 1
    67   37   38 1
    68   37   65 1
    69   37   66 1
    70   38   39 1
    71   38   67 1
    72   38   68 1
    73   39   69 1
    74   39   70 1
@<TRIPOS>MOLECULE
CHEMBL567904
   70    74     0     0     0
SMALL
USER_CHARGES

@<TRIPOS>ATOM
      1 C1         -7.6614   -3.1534   -0.3699 C.3       1 <0>        -0.0842
      2 C2         -6.3402   -3.8753   -0.4354 C.2       1 <0>         0.0466
      3 C3         -5.1774   -3.3899    0.0204 C.2       1 <0>        -0.2157
      4 C4         -4.1689   -4.4218   -0.2500 C.ar      1 <0>        -0.0950
      5 C5         -2.7975   -4.5253   -0.0225 C.ar      1 <0>        -0.0928
      6 C6         -2.1259   -5.6701   -0.4126 C.ar      1 <0>         0.1225
      7 C7         -2.8177   -6.7109   -1.0289 C.ar      1 <0>        -0.1563
      8 C8         -4.1725   -6.6146   -1.2569 C.ar      1 <0>        -0.0645
      9 C9         -4.8638   -5.4727   -0.8710 C.ar      1 <0>         0.0359
     10 O1         -6.1584   -5.1020   -0.9545 O.3       1 <0>        -0.1905
     11 N1         -0.7480   -5.7829   -0.1882 N.pl3     1 <0>        -0.6525
     12 C10        -0.1967   -7.0041    0.0715 C.2       1 <0>         0.7118
     13 N2          1.1165   -7.1249    0.1962 N.2       1 <0>        -0.6837
     14 C11         1.8793   -6.0327    0.3350 C.2       1 <0>         0.5563
     15 O2          1.3591   -4.9394    0.4690 O.2       1 <0>        -0.5765
     16 C12         3.3553   -6.1543    0.3256 C.ar      1 <0>        -0.1663
     17 C13         4.1624   -5.0402    0.5814 C.ar      1 <0>        -0.0241
     18 C14         5.5360   -5.2066    0.5609 C.ar      1 <0>        -0.1857
     19 C15         6.0624   -6.4571    0.2907 C.ar      1 <0>         0.1207
     20 N3          5.2764   -7.4895    0.0528 N.ar      1 <0>        -0.4949
     21 C16         3.9637   -7.3821    0.0674 C.ar      1 <0>         0.1595
     22 N4         -0.9980   -8.1003    0.2027 N.pl3     1 <0>        -0.6814
     23 C17        -0.4020   -9.4238    0.4011 C.3       1 <0>         0.1432
     24 H1          0.5000   -9.3322    1.0062 H         1 <0>         0.1282
     25 C18        -1.4049  -10.3387    1.1081 C.3       1 <0>        -0.1254
     26 C19        -0.6869  -11.4491    1.8535 C.3       1 <0>        -0.1142
     27 C20         0.0234  -12.4367    0.9460 C.3       1 <0>        -0.1549
     28 C21         1.1941  -11.7681    0.2228 C.3       1 <0>         0.1076
     29 N5          0.6889  -11.1361   -1.0069 N.am      1 <0>        -0.5858
     30 C22        -0.0544  -10.0317   -0.9415 C.2       1 <0>         0.5198
     31 O3         -0.4583   -9.5149   -1.9617 O.2       1 <0>        -0.5360
     32 C23         1.0099  -11.7218   -2.3109 C.3       1 <0>         0.0997
     33 C24        -0.0524  -12.7222   -2.6874 C.2       1 <0>         0.5150
     34 O4         -0.9857  -12.9259   -1.9401 O.2       1 <0>        -0.5271
     35 N6          0.0346  -13.3905   -3.8545 N.am      1 <0>        -0.6204
     36 C25         1.1103  -13.2463   -4.8463 C.3       1 <0>         0.0952
     37 C26         0.7759  -14.1850   -6.0247 C.3       1 <0>        -0.1323
     38 C27        -0.7567  -14.3834   -5.8868 C.3       1 <0>        -0.1351
     39 C28        -0.9296  -14.3919   -4.3452 C.3       1 <0>         0.1056
     40 H2         -8.4394   -3.7791   -0.8072 H         1 <0>         0.0813
     41 H3         -7.9080   -2.9407    0.6703 H         1 <0>         0.0927
     42 H4         -7.5923   -2.2181   -0.9254 H         1 <0>         0.0926
     43 H5         -5.0148   -2.4318    0.4916 H         1 <0>         0.1607
     44 H6         -2.2629   -3.7173    0.4546 H         1 <0>         0.1366
     45 H7         -2.2863   -7.6013   -1.3310 H         1 <0>         0.1574
     46 H8         -4.6981   -7.4274   -1.7360 H         1 <0>         0.1416
     47 H9         -0.1856   -4.9932   -0.2173 H         1 <0>         0.4399
     48 H10         3.7245   -4.0750    0.7892 H         1 <0>         0.1434
     49 H11         6.1901   -4.3690    0.7534 H         1 <0>         0.1409
     50 H12         7.1340   -6.5902    0.2739 H         1 <0>         0.1596
     51 H13         3.3533   -8.2515   -0.1273 H         1 <0>         0.1681
     52 H14        -1.9624   -8.0034    0.1646 H         1 <0>         0.4207
     53 H15        -1.9897   -9.7511    1.8159 H         1 <0>         0.0845
     54 H16        -2.0740  -10.7775    0.3680 H         1 <0>         0.0793
     55 H17         0.0476  -11.0007    2.5225 H         1 <0>         0.0675
     56 H18        -1.4157  -11.9918    2.4556 H         1 <0>         0.0743
     57 H19         0.3988  -13.2670    1.5441 H         1 <0>         0.0771
     58 H20        -0.6829  -12.8178    0.2085 H         1 <0>         0.0967
     59 H21         1.6376  -11.0098    0.8680 H         1 <0>         0.0846
     60 H22         1.9427  -12.5180   -0.0324 H         1 <0>         0.0880
     61 H23         1.0499  -10.9339   -3.0631 H         1 <0>         0.1143
     62 H24         1.9769  -12.2217   -2.2565 H         1 <0>         0.1093
     63 H25         1.1566  -12.2148   -5.1957 H         1 <0>         0.0715
     64 H26         2.0640  -13.5328   -4.4031 H         1 <0>         0.0716
     65 H27         1.0195  -13.7117   -6.9759 H         1 <0>         0.0847
     66 H28         1.2988  -15.1357   -5.9207 H         1 <0>         0.0788
     67 H29        -1.3003  -13.5543   -6.3397 H         1 <0>         0.0771
     68 H30        -1.0679  -15.3348   -6.3183 H         1 <0>         0.0860
     69 H31        -0.6938  -15.3760   -3.9401 H         1 <0>         0.0689
     70 H32        -1.9458  -14.1036   -4.0763 H         1 <0>         0.0778
@<TRIPOS>BOND
     1    1    2 1
     2    1   40 1
     3    1   41 1
     4    1   42 1
     5    2   10 1
     6    2    3 2
     7    3    4 1
     8    3   43 1
     9    4    9 ar
    10    4    5 ar
    11    5    6 ar
    12    5   44 1
    13    6    7 ar
    14    6   11 1
    15    7    8 ar
    16    7   45 1
    17    8    9 ar
    18    8   46 1
    19    9   10 1
    20   11   12 1
    21   11   47 1
    22   12   13 2
    23   12   22 1
    24   13   14 1
    25   14   15 2
    26   14   16 1
    27   16   21 ar
    28   16   17 ar
    29   17   18 ar
    30   17   48 1
    31   18   19 ar
    32   18   49 1
    33   19   20 ar
    34   19   50 1
    35   20   21 ar
    36   21   51 1
    37   22   23 1
    38   22   52 1
    39   23   24 1
    40   23   30 1
    41   23   25 1
    42   25   26 1
    43   25   53 1
    44   25   54 1
    45   26   27 1
    46   26   55 1
    47   26   56 1
    48   27   28 1
    49   27   57 1
    50   27   58 1
    51   28   29 1
    52   28   59 1
    53   28   60 1
    54   29   30 am
    55   29   32 1
    56   30   31 2
    57   32   33 1
    58   32   61 1
    59   32   62 1
    60   33   34 2
    61   33   35 am
    62   35   39 1
    63   35   36 1
    64   36   37 1
    65   36   63 1
    66   36   64 1
    67   37   38 1
    68   37   65 1
    69   37   66 1
    70   38   39 1
    71   38   67 1
    72   38   68 1
    73   39   69 1
    74   39   70 1
@<TRIPOS>MOLECULE
CHEMBL567904
   69    73     0     0     0
SMALL
USER_CHARGES

@<TRIPOS>ATOM
      1 C1          5.3641   -0.8936    2.2508 C.3       1 <0>        -0.0758
      2 C2          4.3939   -1.9296    1.7443 C.2       1 <0>         0.0186
      3 C3          4.2999   -3.1836    2.2071 C.2       1 <0>        -0.2140
      4 C4          3.2333   -3.8275    1.4307 C.ar      1 <0>        -0.1089
      5 C5          2.6643   -5.1001    1.4280 C.ar      1 <0>        -0.1410
      6 C6          1.6440   -5.3891    0.5397 C.ar      1 <0>         0.1949
      7 C7          1.1903   -4.4135   -0.3456 C.ar      1 <0>        -0.0692
      8 C8          1.7486   -3.1544   -0.3483 C.ar      1 <0>        -0.0971
      9 C9          2.7737   -2.8457    0.5374 C.ar      1 <0>         0.0184
     10 O1          3.4935   -1.7278    0.7668 O.3       1 <0>        -0.1985
     11 N1          1.0663   -6.6650    0.5299 N.pl3     1 <0>        -0.6840
     12 C10        -0.2689   -6.8077    0.2855 C.2       1 <0>         0.6052
     13 N2         -1.0400   -5.7365    0.1744 N.2       1 <0>        -0.7166
     14 C11        -2.3644   -5.8766    0.0317 C.2       1 <0>         0.5100
     15 O2         -2.8711   -6.9821    0.1027 O.2       1 <0>        -0.5534
     16 C12        -3.2128   -4.6875   -0.2124 C.ar      1 <0>        -0.1266
     17 C13        -4.5983   -4.8199   -0.3575 C.ar      1 <0>        -0.0464
     18 C14        -5.3462   -3.6780   -0.5842 C.ar      1 <0>        -0.1900
     19 C15        -4.7065   -2.4536   -0.6594 C.ar      1 <0>         0.0872
     20 N3         -3.3982   -2.3596   -0.5191 N.ar      1 <0>        -0.5005
     21 C16        -2.6450   -3.4167   -0.2958 C.ar      1 <0>         0.1383
     22 N4         -0.8092   -8.0535    0.1557 N.2       1 <0>        -0.6343
     23 C17         0.0656   -9.2208    0.0197 C.3       1 <0>         0.0927
     24 H1          0.7691   -9.2501    0.8518 H         1 <0>         0.0288
     25 C18        -0.7781  -10.4979    0.0144 C.3       1 <0>        -0.0840
     26 C19         0.0443  -11.6875    0.4753 C.3       1 <0>        -0.1150
     27 C20         1.1604  -12.0681   -0.4803 C.3       1 <0>        -0.1481
     28 C21         2.2311  -10.9765   -0.5306 C.3       1 <0>         0.1195
     29 N5          1.8346   -9.9735   -1.5323 N.am      1 <0>        -0.6047
     30 C22         0.8262   -9.1371   -1.2870 C.2       1 <0>         0.5024
     31 O3          0.5136   -8.3092   -2.1163 O.2       1 <0>        -0.5228
     32 C23         2.5564   -9.8907   -2.8044 C.3       1 <0>         0.1007
     33 C24         1.8982  -10.7941   -3.8152 C.2       1 <0>         0.5136
     34 O4          0.9223  -11.4433   -3.5036 O.2       1 <0>        -0.5194
     35 N6          2.3941  -10.8807   -5.0654 N.am      1 <0>        -0.6250
     36 C25         3.5694  -10.1579   -5.5730 C.3       1 <0>         0.0974
     37 C26         3.7426  -10.5487   -7.0559 C.3       1 <0>        -0.1307
     38 C27         2.3234  -11.0316   -7.4559 C.3       1 <0>        -0.1344
     39 C28         1.8516  -11.7208   -6.1486 C.3       1 <0>         0.1057
     40 H2          5.2207    0.0373    1.7023 H         1 <0>         0.0750
     41 H3          5.1893   -0.7204    3.3126 H         1 <0>         0.0841
     42 H4          6.3842   -1.2485    2.1037 H         1 <0>         0.0834
     43 H5          4.8904   -3.6308    2.9930 H         1 <0>         0.1481
     44 H6          3.0178   -5.8552    2.1145 H         1 <0>         0.1163
     45 H7          0.3936   -4.6468   -1.0364 H         1 <0>         0.1551
     46 H8          1.3893   -2.4064   -1.0395 H         1 <0>         0.1263
     47 H9          1.6151   -7.4473    0.6968 H         1 <0>         0.3935
     48 H10        -5.0717   -5.7886   -0.2945 H         1 <0>         0.1358
     49 H11        -6.4179   -3.7419   -0.7015 H         1 <0>         0.1273
     50 H12        -5.2875   -1.5606   -0.8363 H         1 <0>         0.1461
     51 H13        -1.5775   -3.2989   -0.1813 H         1 <0>         0.1680
     52 H14        -1.6288  -10.3689    0.6835 H         1 <0>         0.0764
     53 H15        -1.1422  -10.6833   -0.9962 H         1 <0>         0.0561
     54 H16         0.4820  -11.4530    1.4456 H         1 <0>         0.0538
     55 H17        -0.6191  -12.5441    0.5941 H         1 <0>         0.0568
     56 H18         1.6151  -13.0010   -0.1470 H         1 <0>         0.0622
     57 H19         0.7453  -12.2091   -1.4783 H         1 <0>         0.0908
     58 H20         2.3166  -10.5027    0.4474 H         1 <0>         0.0738
     59 H21         3.1883  -11.4157   -0.8118 H         1 <0>         0.0737
     60 H22         2.5357   -8.8632   -3.1677 H         1 <0>         0.1084
     61 H23         3.5902  -10.2030   -2.6567 H         1 <0>         0.0973
     62 H24         3.4083   -9.0831   -5.4893 H         1 <0>         0.0706
     63 H25         4.4553  -10.4471   -5.0075 H         1 <0>         0.0681
     64 H26         4.0377   -9.6843   -7.6506 H         1 <0>         0.0826
     65 H27         4.4680  -11.3556   -7.1598 H         1 <0>         0.0760
     66 H28         1.6812  -10.1885   -7.7108 H         1 <0>         0.0771
     67 H29         2.3710  -11.7466   -8.2772 H         1 <0>         0.0829
     68 H30         2.2547  -12.7314   -6.0831 H         1 <0>         0.0650
     69 H31         0.7628  -11.7420   -6.1031 H         1 <0>         0.0767
@<TRIPOS>BOND
     1    1    2 1
     2    1   40 1
     3    1   41 1
     4    1   42 1
     5    2   10 1
     6    2    3 2
     7    3    4 1
     8    3   43 1
     9    4    9 ar
    10    4    5 ar
    11    5    6 ar
    12    5   44 1
    13    6    7 ar
    14    6   11 1
    15    7    8 ar
    16    7   45 1
    17    8    9 ar
    18    8   46 1
    19    9   10 1
    20   11   12 1
    21   11   47 1
    22   12   13 2
    23   12   22 1
    24   13   14 1
    25   14   15 2
    26   14   16 1
    27   16   21 ar
    28   16   17 ar
    29   17   18 ar
    30   17   48 1
    31   18   19 ar
    32   18   49 1
    33   19   20 ar
    34   19   50 1
    35   20   21 ar
    36   21   51 1
    37   22   23 1
    38   23   24 1
    39   23   30 1
    40   23   25 1
    41   25   26 1
    42   25   52 1
    43   25   53 1
    44   26   27 1
    45   26   54 1
    46   26   55 1
    47   27   28 1
    48   27   56 1
    49   27   57 1
    50   28   29 1
    51   28   58 1
    52   28   59 1
    53   29   30 am
    54   29   32 1
    55   30   31 2
    56   32   33 1
    57   32   60 1
    58   32   61 1
    59   33   34 2
    60   33   35 am
    61   35   39 1
    62   35   36 1
    63   36   37 1
    64   36   62 1
    65   36   63 1
    66   37   38 1
    67   37   64 1
    68   37   65 1
    69   38   39 1
    70   38   66 1
    71   38   67 1
    72   39   68 1
    73   39   69 1
@<TRIPOS>MOLECULE
CHEMBL207304
   69    72     0     0     0
SMALL
USER_CHARGES

@<TRIPOS>ATOM
      1 C1         -0.1192    1.3086    0.4672 C.3       1 <0>        -0.1810
      2 C2         -0.4696   -0.1384    0.1144 C.3       1 <0>         0.0108
      3 H1         -1.5509   -0.2373    0.0187 H         1 <0>         0.1563
      4 C3          0.0317   -1.0688    1.2207 C.3       1 <0>         0.1735
      5 H2          1.1075   -0.9421    1.3423 H         1 <0>         0.1485
      6 C4         -0.6632   -0.7309    2.5145 C.ar      1 <0>        -0.1883
      7 C5         -2.0513   -0.8282    2.5939 C.ar      1 <0>        -0.1257
      8 C6         -2.7096   -0.5304    3.7471 C.ar      1 <0>        -0.0810
      9 C7         -1.9818   -0.1188    4.8771 C.ar      1 <0>         0.0164
     10 C8         -2.6273    0.1961    6.0842 C.ar      1 <0>        -0.1819
     11 C9         -1.8877    0.5923    7.1618 C.ar      1 <0>         0.1949
     12 C10        -0.4950    0.6892    7.0796 C.ar      1 <0>        -0.1727
     13 C11         0.1595    0.3918    5.9254 C.ar      1 <0>        -0.0669
     14 C12        -0.5701   -0.0202    4.7964 C.ar      1 <0>        -0.1053
     15 C13         0.0746   -0.3407    3.5896 C.ar      1 <0>        -0.0232
     16 O1         -2.5134    0.8966    8.3291 O.3       1 <0>        -0.2630
     17 C14        -1.6867    1.3048    9.4209 C.3       1 <0>         0.0945
     18 C15        -2.5622    1.6031   10.6397 C.3       1 <0>        -0.1375
     19 C16        -3.5119    2.7795   10.3329 C.3       1 <0>        -0.0888
     20 C17        -3.5832    3.5673   11.6646 C.3       1 <0>        -0.1202
     21 C18        -2.1313    3.4732   12.1956 C.3       1 <0>        -0.1184
     22 C19        -1.6844    2.0442   11.8240 C.3       1 <0>        -0.0951
     23 C20        -3.3585    0.3799   11.0147 C.2       1 <0>         0.5083
     24 O2         -3.2313   -0.6501   10.3749 O.co2     1 <0>        -0.6929
     25 O3         -4.1299    0.4202   11.9580 O.co2     1 <0>        -0.6840
     26 N1         -0.2586   -2.4584    0.8589 N.pl3     1 <0>        -0.4293
     27 C21        -1.4710   -2.9598    0.4688 C.2       1 <0>         0.0028
     28 C22        -1.2916   -4.2734    0.2323 C.2       1 <0>         0.0278
     29 N2         -0.0047   -4.5660    0.4715 N.pl3     1 <0>        -0.4673
     30 C23         0.6213   -3.4827    0.8424 C.cat     1 <0>         0.2906
     31 N3          0.1698   -0.5009   -1.1574 N.4       1 <0>        -0.3887
     32 C24         1.6170   -0.2675   -1.0620 C.3       1 <0>        -0.0705
     33 C25        -0.3887    0.3222   -2.2384 C.3       1 <0>         0.0177
     34 C26         0.2611   -0.0709   -3.5666 C.3       1 <0>        -0.1838
     35 C27        -1.8995    0.0960   -2.3231 C.3       1 <0>        -0.1876
     36 H3          0.9621    1.4075    0.5629 H         1 <0>         0.0922
     37 H4         -0.4763    1.9714   -0.3210 H         1 <0>         0.0981
     38 H5         -0.5936    1.5776    1.4109 H         1 <0>         0.1226
     39 H6         -2.6128   -1.1442    1.7271 H         1 <0>         0.1110
     40 H7         -3.7857   -0.6097    3.7938 H         1 <0>         0.1381
     41 H8         -3.7024    0.1257    6.1596 H         1 <0>         0.1445
     42 H9          0.0687    1.0051    7.9450 H         1 <0>         0.1421
     43 H10         1.2354    0.4719    5.8760 H         1 <0>         0.1354
     44 H11         1.1499   -0.2738    3.5144 H         1 <0>         0.1300
     45 H12        -0.9855    0.5065    9.6640 H         1 <0>         0.0633
     46 H13        -1.1337    2.2019    9.1425 H         1 <0>         0.0493
     47 H14        -3.1005    3.4054    9.5410 H         1 <0>         0.0474
     48 H15        -4.4990    2.4104   10.0547 H         1 <0>         0.0628
     49 H16        -3.8622    4.6056   11.4847 H         1 <0>         0.0557
     50 H17        -4.2792    3.0936   12.3569 H         1 <0>         0.0795
     51 H18        -1.4969    4.2111   11.7045 H         1 <0>         0.0554
     52 H19        -2.1108    3.6103   13.2767 H         1 <0>         0.0632
     53 H20        -1.8350    1.3740   12.6703 H         1 <0>         0.0735
     54 H21        -0.6347    2.0457   11.5305 H         1 <0>         0.0500
     55 H22        -2.3942   -2.4081    0.3700 H         1 <0>         0.2248
     56 H23        -2.0508   -4.9692   -0.0929 H         1 <0>         0.2313
     57 H24         1.6689   -3.4167    1.0966 H         1 <0>         0.2651
     58 H25         2.0914   -0.5366   -2.0057 H         1 <0>         0.1368
     59 H26         1.8019    0.7854   -0.8495 H         1 <0>         0.1399
     60 H27         2.0314   -0.8783   -0.2599 H         1 <0>         0.1168
     61 H28        -0.1897    1.3742   -2.0339 H         1 <0>         0.1476
     62 H29         0.0621   -1.1229   -3.7711 H         1 <0>         0.0788
     63 H30        -0.1533    0.5398   -4.3687 H         1 <0>         0.1127
     64 H31         1.3374    0.0902   -3.5062 H         1 <0>         0.0847
     65 H32        -2.2927    0.5962   -3.2082 H         1 <0>         0.1145
     66 H33        -2.1038   -0.9726   -2.3888 H         1 <0>         0.0779
     67 H34        -2.3784    0.5034   -1.4327 H         1 <0>         0.0848
     68 H35        -0.0015   -1.4756   -1.3541 H         1 <0>         0.4095
     69 H36         0.3980   -5.4437    0.3797 H         1 <0>         0.4717
@<TRIPOS>BOND
     1    1    2 1
     2    1   36 1
     3    1   37 1
     4    1   38 1
     5    2    3 1
     6    2    4 1
     7    2   31 1
     8    4    5 1
     9    4    6 1
    10    4   26 1
    11    6   15 ar
    12    6    7 ar
    13    7    8 ar
    14    7   39 1
    15    8    9 ar
    16    8   40 1
    17    9   14 ar
    18    9   10 ar
    19   10   11 ar
    20   10   41 1
    21   11   12 ar
    22   11   16 1
    23   12   13 ar
    24   12   42 1
    25   13   14 ar
    26   13   43 1
    27   14   15 ar
    28   15   44 1
    29   16   17 1
    30   17   18 1
    31   17   45 1
    32   17   46 1
    33   18   22 1
    34   18   19 1
    35   18   23 1
    36   19   20 1
    37   19   47 1
    38   19   48 1
    39   20   21 1
    40   20   49 1
    41   20   50 1
    42   21   22 1
    43   21   51 1
    44   21   52 1
    45   22   53 1
    46   22   54 1
    47   23   24 2
    48   23   25 1
    49   26   30 1
    50   26   27 1
    51   27   28 2
    52   27   55 1
    53   28   29 1
    54   28   56 1
    55   29   30 2
    56   29   69 1
    57   30   57 1
    58   31   32 1
    59   31   33 1
    60   31   68 1
    61   32   58 1
    62   32   59 1
    63   32   60 1
    64   33   34 1
    65   33   35 1
    66   33   61 1
    67   34   62 1
    68   34   63 1
    69   34   64 1
    70   35   65 1
    71   35   66 1
    72   35   67 1
@<TRIPOS>MOLECULE
CHEMBL207304
   68    71     0     0     0
SMALL
USER_CHARGES

@<TRIPOS>ATOM
      1 C1         -0.3590    1.2959   -0.3309 C.3       1 <0>        -0.1780
      2 C2          0.1334   -0.1457   -0.4731 C.3       1 <0>         0.0122
      3 H1          0.7575   -0.2304   -1.3627 H         1 <0>         0.1476
      4 C3         -1.0678   -1.0846   -0.6015 C.3       1 <0>         0.1775
      5 H2         -1.7129   -0.9704    0.2696 H         1 <0>         0.1244
      6 C4         -1.8420   -0.7422   -1.8483 C.ar      1 <0>        -0.1549
      7 C5         -1.2144   -0.8239   -3.0900 C.ar      1 <0>        -0.1139
      8 C6         -1.8849   -0.5217   -4.2351 C.ar      1 <0>        -0.0917
      9 C7         -3.2308   -0.1213   -4.1680 C.ar      1 <0>         0.0094
     10 C8         -3.9545    0.1978   -5.3287 C.ar      1 <0>        -0.1770
     11 C9         -5.2607    0.5827   -5.2253 C.ar      1 <0>         0.1789
     12 C10        -5.8881    0.6641   -3.9780 C.ar      1 <0>        -0.1778
     13 C11        -5.2148    0.3623   -2.8358 C.ar      1 <0>        -0.0695
     14 C12        -3.8690   -0.0386   -2.9050 C.ar      1 <0>        -0.0987
     15 C13        -3.1451   -0.3631   -1.7452 C.ar      1 <0>        -0.0443
     16 O1         -5.9598    0.8912   -6.3489 O.3       1 <0>        -0.2700
     17 C14        -7.3221    1.2871   -6.1772 C.3       1 <0>         0.0967
     18 C15        -7.9406    1.5922   -7.5430 C.3       1 <0>        -0.1370
     19 C16        -7.2086    2.7801   -8.2010 C.3       1 <0>        -0.0884
     20 C17        -8.3315    3.5652   -8.9233 C.3       1 <0>        -0.1195
     21 C18        -9.5178    3.4532   -7.9337 C.3       1 <0>        -0.1177
     22 C19        -9.4088    2.0202   -7.3730 C.3       1 <0>        -0.0950
     23 C20        -7.8565    0.3771   -8.4304 C.2       1 <0>         0.5081
     24 O2         -7.3583   -0.6526   -8.0085 O.co2     1 <0>        -0.6882
     25 O3         -8.2866    0.4237   -9.5703 O.co2     1 <0>        -0.6896
     26 N1         -0.5982   -2.4699   -0.6833 N.pl3     1 <0>        -0.4774
     27 C21        -1.0270   -3.5194    0.0837 C.2       1 <0>        -0.0585
     28 C22        -0.3387   -4.6041   -0.3204 C.2       1 <0>        -0.0113
     29 N2          0.4878   -4.2271   -1.3072 N.2       1 <0>        -0.4717
     30 C23         0.3342   -2.9511   -1.5334 C.2       1 <0>         0.1703
     31 N3          0.9184   -0.5143    0.7126 N.4       1 <0>        -0.3838
     32 C24         0.1104   -0.3005    1.9207 C.3       1 <0>        -0.0632
     33 C25         2.1269    0.3185    0.7780 C.3       1 <0>         0.0195
     34 C26         2.9566   -0.0819    1.9996 C.3       1 <0>        -0.1825
     35 C27         2.9564    0.1141   -0.4912 C.3       1 <0>        -0.1868
     36 H3          0.4968    1.9648   -0.2394 H         1 <0>         0.0887
     37 H4         -0.9415    1.5694   -1.2107 H         1 <0>         0.1160
     38 H5         -0.9831    1.3806    0.5588 H         1 <0>         0.0866
     39 H6         -0.1805   -1.1314   -3.1444 H         1 <0>         0.1132
     40 H7         -1.3856   -0.5889   -5.1903 H         1 <0>         0.1340
     41 H8         -3.4806    0.1394   -6.2974 H         1 <0>         0.1399
     42 H9         -6.9219    0.9713   -3.9212 H         1 <0>         0.1362
     43 H10        -5.7118    0.4302   -1.8794 H         1 <0>         0.1311
     44 H11        -3.6193   -0.3083   -0.7764 H         1 <0>         0.1253
     45 H12        -7.8775    0.4802   -5.6990 H         1 <0>         0.0601
     46 H13        -7.3653    2.1785   -5.5515 H         1 <0>         0.0454
     47 H14        -6.7343    3.4033   -7.4429 H         1 <0>         0.0479
     48 H15        -6.4703    2.4228   -8.9190 H         1 <0>         0.0625
     49 H16        -8.0443    4.6070   -9.0658 H         1 <0>         0.0540
     50 H17        -8.5782    3.0975   -9.8765 H         1 <0>         0.0784
     51 H18        -9.4164    4.1852   -7.1324 H         1 <0>         0.0548
     52 H19       -10.4647    3.5873   -8.4566 H         1 <0>         0.0610
     53 H20       -10.0604    1.3496   -7.9331 H         1 <0>         0.0720
     54 H21        -9.6807    2.0106   -6.3175 H         1 <0>         0.0498
     55 H22        -1.7735   -3.4844    0.8634 H         1 <0>         0.1809
     56 H23        -0.4352   -5.6025    0.0800 H         1 <0>         0.1770
     57 H24         0.8665   -2.3748   -2.2757 H         1 <0>         0.2036
     58 H25         0.6929   -0.5739    2.8005 H         1 <0>         0.1294
     59 H26        -0.1749    0.7495    1.9858 H         1 <0>         0.1305
     60 H27        -0.7862   -0.9183    1.8721 H         1 <0>         0.1199
     61 H28         1.8414    1.3672    0.8606 H         1 <0>         0.1406
     62 H29         3.2420   -1.1307    1.9170 H         1 <0>         0.0803
     63 H30         3.8532    0.5359    2.0481 H         1 <0>         0.1065
     64 H31         2.3656    0.0637    2.9038 H         1 <0>         0.0819
     65 H32         2.4211    0.5281   -1.3457 H         1 <0>         0.0832
     66 H33         3.9158    0.6201   -0.3836 H         1 <0>         0.1080
     67 H34         3.1233   -0.9515   -0.6485 H         1 <0>         0.0815
     68 H35         1.1826   -1.4862    0.6523 H         1 <0>         0.4216
@<TRIPOS>BOND
     1    1    2 1
     2    1   36 1
     3    1   37 1
     4    1   38 1
     5    2    3 1
     6    2    4 1
     7    2   31 1
     8    4    5 1
     9    4    6 1
    10    4   26 1
    11    6   15 ar
    12    6    7 ar
    13    7    8 ar
    14    7   39 1
    15    8    9 ar
    16    8   40 1
    17    9   14 ar
    18    9   10 ar
    19   10   11 ar
    20   10   41 1
    21   11   12 ar
    22   11   16 1
    23   12   13 ar
    24   12   42 1
    25   13   14 ar
    26   13   43 1
    27   14   15 ar
    28   15   44 1
    29   16   17 1
    30   17   18 1
    31   17   45 1
    32   17   46 1
    33   18   22 1
    34   18   19 1
    35   18   23 1
    36   19   20 1
    37   19   47 1
    38   19   48 1
    39   20   21 1
    40   20   49 1
    41   20   50 1
    42   21   22 1
    43   21   51 1
    44   21   52 1
    45   22   53 1
    46   22   54 1
    47   23   24 2
    48   23   25 1
    49   26   30 1
    50   26   27 1
    51   27   28 2
    52   27   55 1
    53   28   29 1
    54   28   56 1
    55   29   30 2
    56   30   57 1
    57   31   32 1
    58   31   33 1
    59   31   68 1
    60   32   58 1
    61   32   59 1
    62   32   60 1
    63   33   34 1
    64   33   35 1
    65   33   61 1
    66   34   62 1
    67   34   63 1
    68   34   64 1
    69   35   65 1
    70   35   66 1
    71   35   67 1
@<TRIPOS>MOLECULE
CHEMBL230309
   47    50     0     0     0
SMALL
USER_CHARGES

@<TRIPOS>ATOM
      1 C1         -0.0477    1.4983    0.0087 C.3       1 <0>        -0.1080
      2 C2          0.0086   -0.0077    0.0012 C.ar      1 <0>        -0.0404
      3 C3          0.0361   -0.6918   -1.1932 C.ar      1 <0>        -0.1314
      4 C4          0.0879   -2.0777   -1.2100 C.ar      1 <0>        -0.1037
      5 C5          0.1126   -2.7911   -0.0292 C.ar      1 <0>        -0.1164
      6 C6          0.0860   -2.1196    1.1838 C.ar      1 <0>         0.0466
      7 C7          0.0388   -0.7145    1.2071 C.ar      1 <0>         0.0642
      8 N1          0.0283   -0.3342    2.5087 N.2       1 <0>        -0.5273
      9 C8          0.0707   -1.3971    3.2794 C.2       1 <0>         0.3886
     10 N2          0.0992   -2.5282    2.5057 N.pl3     1 <0>        -0.5857
     11 H1          0.1323   -3.4435    2.8250 H         1 <0>         0.4330
     12 C9          0.0743   -1.3770    4.7512 C.2       1 <0>        -0.3016
     13 C10         0.1535   -0.1631    5.4488 C.2       1 <0>         0.3581
     14 C11         0.1536   -0.1895    6.8563 C.2       1 <0>        -0.2733
     15 C12         0.0782   -1.3696    7.5088 C.2       1 <0>         0.1856
     16 N3          0.0019   -2.5462    6.8331 N.am      1 <0>        -0.6202
     17 H2         -0.0508   -3.3775    7.3302 H         1 <0>         0.4197
     18 C13        -0.0079   -2.5801    5.4876 C.2       1 <0>         0.5567
     19 O1         -0.0827   -3.6489    4.9044 O.2       1 <0>        -0.5655
     20 N4          0.2304    1.0337    4.7689 N.pl3     1 <0>        -0.6852
     21 C14         0.4323    2.2834    5.5063 C.3       1 <0>         0.0766
     22 C15         0.4807    3.4541    4.5223 C.3       1 <0>         0.1424
     23 C16         0.8103    4.7224    5.2664 C.ar      1 <0>        -0.1063
     24 C17        -0.1777    5.3897    5.9666 C.ar      1 <0>        -0.1057
     25 C18         0.1239    6.5530    6.6493 C.ar      1 <0>        -0.1010
     26 C19         1.4136    7.0503    6.6321 C.ar      1 <0>        -0.1056
     27 C20         2.4025    6.3832    5.9318 C.ar      1 <0>        -0.0315
     28 C21         2.1013    5.2153    5.2535 C.ar      1 <0>        -0.0971
     29 Cl1         4.0224    7.0071    5.9097 Cl        1 <0>        -0.0630
     30 O2         -0.7904    3.5928    3.8842 O.3       1 <0>        -0.5400
     31 H3          0.9657    1.8997    0.0073 H         1 <0>         0.0676
     32 H4         -0.5777    1.8465   -0.8778 H         1 <0>         0.0646
     33 H5         -0.5717    1.8378    0.9022 H         1 <0>         0.0725
     34 H6          0.0168   -0.1450   -2.1244 H         1 <0>         0.1274
     35 H7          0.1087   -2.6022   -2.1539 H         1 <0>         0.1285
     36 H8          0.1523   -3.8702   -0.0496 H         1 <0>         0.1206
     37 H9          0.2142    0.7334    7.4140 H         1 <0>         0.1534
     38 H10         0.0790   -1.3784    8.5888 H         1 <0>         0.1736
     39 H11         0.1508    1.0484    3.8023 H         1 <0>         0.4352
     40 H12        -0.3911    2.4300    6.2052 H         1 <0>         0.0777
     41 H13         1.3716    2.2326    6.0570 H         1 <0>         0.0836
     42 H14         1.2463    3.2648    3.7698 H         1 <0>         0.1189
     43 H15        -1.1856    5.0019    5.9797 H         1 <0>         0.1289
     44 H16        -0.6483    7.0738    7.1960 H         1 <0>         0.1364
     45 H17         1.6489    7.9597    7.1650 H         1 <0>         0.1363
     46 H18         2.8740    4.6916    4.7102 H         1 <0>         0.1364
     47 H19        -1.5205    3.7633    4.4949 H         1 <0>         0.3759
@<TRIPOS>BOND
     1    1    2 1
     2    1   31 1
     3    1   32 1
     4    1   33 1
     5    2    7 ar
     6    2    3 ar
     7    3    4 ar
     8    3   34 1
     9    4    5 ar
    10    4   35 1
    11    5    6 ar
    12    5   36 1
    13    6   10 1
    14    6    7 ar
    15    7    8 1
    16    8    9 2
    17    9   10 1
    18    9   12 1
    19   10   11 1
    20   12   18 1
    21   12   13 2
    22   13   14 1
    23   13   20 1
    24   14   15 2
    25   14   37 1
    26   15   16 1
    27   15   38 1
    28   16   17 1
    29   16   18 am
    30   18   19 2
    31   20   21 1
    32   20   39 1
    33   21   22 1
    34   21   40 1
    35   21   41 1
    36   22   23 1
    37   22   30 1
    38   22   42 1
    39   23   28 ar
    40   23   24 ar
    41   24   25 ar
    42   24   43 1
    43   25   26 ar
    44   25   44 1
    45   26   27 ar
    46   26   45 1
    47   27   28 ar
    48   27   29 1
    49   28   46 1
    50   30   47 1
@<TRIPOS>MOLECULE
CHEMBL230309
   47    50     0     0     0
SMALL
USER_CHARGES

@<TRIPOS>ATOM
      1 C1         -0.0481    1.4983    0.0088 C.3       1 <0>        -0.1054
      2 C2          0.0082   -0.0076    0.0012 C.ar      1 <0>        -0.0398
      3 C3          0.0357   -0.6917   -1.1932 C.ar      1 <0>        -0.1318
      4 C4          0.0876   -2.0777   -1.2100 C.ar      1 <0>        -0.1037
      5 C5          0.1124   -2.7911   -0.0292 C.ar      1 <0>        -0.1167
      6 C6          0.0858   -2.1196    1.1838 C.ar      1 <0>         0.0465
      7 C7          0.0386   -0.7145    1.2071 C.ar      1 <0>         0.0646
      8 N1          0.0281   -0.3342    2.5087 N.2       1 <0>        -0.5259
      9 C8          0.0706   -1.3971    3.2794 C.2       1 <0>         0.3880
     10 N2          0.0991   -2.5282    2.5057 N.pl3     1 <0>        -0.5858
     11 H1          0.1322   -3.4435    2.8250 H         1 <0>         0.4329
     12 C9          0.0743   -1.3770    4.7512 C.2       1 <0>        -0.3014
     13 C10         0.1535   -0.1631    5.4488 C.2       1 <0>         0.3577
     14 C11         0.1536   -0.1895    6.8563 C.2       1 <0>        -0.2733
     15 C12         0.0783   -1.3696    7.5088 C.2       1 <0>         0.1854
     16 N3          0.0019   -2.5462    6.8331 N.am      1 <0>        -0.6202
     17 H2         -0.0508   -3.3775    7.3302 H         1 <0>         0.4196
     18 C13        -0.0079   -2.5801    5.4876 C.2       1 <0>         0.5565
     19 O1         -0.0828   -3.6489    4.9044 O.2       1 <0>        -0.5656
     20 N4          0.2304    1.0337    4.7689 N.pl3     1 <0>        -0.6850
     21 C14         0.4323    2.2834    5.5063 C.3       1 <0>         0.0762
     22 C15         0.4807    3.4541    4.5223 C.3       1 <0>         0.1424
     23 C16         0.6884    4.7396    5.2808 C.ar      1 <0>        -0.1065
     24 C17         1.9671    5.1465    5.6142 C.ar      1 <0>        -0.1049
     25 C18         2.1584    6.3254    6.3099 C.ar      1 <0>        -0.1009
     26 C19         1.0713    7.0981    6.6732 C.ar      1 <0>        -0.1059
     27 C20        -0.2082    6.6915    6.3399 C.ar      1 <0>        -0.0316
     28 C21        -0.3987    5.5143    5.6381 C.ar      1 <0>        -0.0981
     29 Cl1        -1.5739    7.6615    6.7958 Cl        1 <0>        -0.0632
     30 O2          1.5603    3.2619    3.6060 O.3       1 <0>        -0.5390
     31 H3          0.9653    1.8998    0.0073 H         1 <0>         0.0706
     32 H4         -0.5781    1.8465   -0.8777 H         1 <0>         0.0636
     33 H5         -0.5721    1.8378    0.9022 H         1 <0>         0.0680
     34 H6          0.0164   -0.1450   -2.1244 H         1 <0>         0.1273
     35 H7          0.1083   -2.6022   -2.1539 H         1 <0>         0.1284
     36 H8          0.1520   -3.8701   -0.0496 H         1 <0>         0.1205
     37 H9          0.2143    0.7334    7.4140 H         1 <0>         0.1535
     38 H10         0.0791   -1.3784    8.5888 H         1 <0>         0.1735
     39 H11         0.1508    1.0484    3.8023 H         1 <0>         0.4357
     40 H12        -0.3911    2.4300    6.2052 H         1 <0>         0.0838
     41 H13         1.3716    2.2326    6.0570 H         1 <0>         0.0772
     42 H14        -0.4586    3.5049    3.9716 H         1 <0>         0.1192
     43 H15         2.8167    4.5427    5.3312 H         1 <0>         0.1289
     44 H16         3.1574    6.6427    6.5701 H         1 <0>         0.1362
     45 H17         1.2209    8.0189    7.2174 H         1 <0>         0.1362
     46 H18        -1.3971    5.1986    5.3738 H         1 <0>         0.1366
     47 H19         2.4289    3.2073    4.0275 H         1 <0>         0.3757
@<TRIPOS>BOND
     1    1    2 1
     2    1   31 1
     3    1   32 1
     4    1   33 1
     5    2    7 ar
     6    2    3 ar
     7    3    4 ar
     8    3   34 1
     9    4    5 ar
    10    4   35 1
    11    5    6 ar
    12    5   36 1
    13    6   10 1
    14    6    7 ar
    15    7    8 1
    16    8    9 2
    17    9   10 1
    18    9   12 1
    19   10   11 1
    20   12   18 1
    21   12   13 2
    22   13   14 1
    23   13   20 1
    24   14   15 2
    25   14   37 1
    26   15   16 1
    27   15   38 1
    28   16   17 1
    29   16   18 am
    30   18   19 2
    31   20   21 1
    32   20   39 1
    33   21   22 1
    34   21   40 1
    35   21   41 1
    36   22   23 1
    37   22   30 1
    38   22   42 1
    39   23   28 ar
    40   23   24 ar
    41   24   25 ar
    42   24   43 1
    43   25   26 ar
    44   25   44 1
    45   26   27 ar
    46   26   45 1
    47   27   28 ar
    48   27   29 1
    49   28   46 1
    50   30   47 1
@<TRIPOS>MOLECULE
CHEMBL397666
   49    53     0     0     0
SMALL
USER_CHARGES

@<TRIPOS>ATOM
      1 C1         -0.0480    1.4981    0.0087 C.3       1 <0>        -0.1071
      2 C2          0.0092   -0.0078    0.0011 C.ar      1 <0>        -0.0097
      3 C3          0.0370   -0.6844   -1.1850 C.ar      1 <0>        -0.1407
      4 C4          0.0898   -2.0756   -1.2061 C.ar      1 <0>         0.1456
      5 C5          0.1149   -2.7926   -0.0207 C.ar      1 <0>        -0.1246
      6 C6          0.0872   -2.1181    1.1899 C.ar      1 <0>         0.0694
      7 C7          0.0396   -0.7126    1.2085 C.ar      1 <0>         0.0630
      8 N1          0.0285   -0.3283    2.5095 N.2       1 <0>        -0.5263
      9 C8          0.0709   -1.3886    3.2833 C.2       1 <0>         0.4004
     10 N2          0.1002   -2.5226    2.5129 N.pl3     1 <0>        -0.5816
     11 H1          0.1340   -3.4369    2.8351 H         1 <0>         0.4360
     12 C9          0.0739   -1.3638    4.7552 C.2       1 <0>        -0.3074
     13 C10         0.1531   -0.1478    5.4489 C.2       1 <0>         0.3640
     14 C11         0.1531   -0.1697    6.8565 C.2       1 <0>        -0.2733
     15 C12         0.0776   -1.3477    7.5128 C.2       1 <0>         0.1890
     16 N3          0.0009   -2.5264    6.8407 N.am      1 <0>        -0.6203
     17 H2         -0.0522   -3.3562    7.3404 H         1 <0>         0.4204
     18 C13        -0.0089   -2.5645    5.4953 C.2       1 <0>         0.5589
     19 O1         -0.0842   -3.6351    4.9155 O.2       1 <0>        -0.5662
     20 N4          0.2300    1.0470    4.7651 N.pl3     1 <0>        -0.6821
     21 C14         0.4324    2.2990    5.4985 C.3       1 <0>         0.1575
     22 C15         0.4800    3.4489    4.5258 C.ar      1 <0>         0.1030
     23 C16        -0.6684    4.1738    4.2681 C.ar      1 <0>        -0.1504
     24 C17        -0.6139    5.2297    3.3716 C.ar      1 <0>        -0.0747
     25 C18         0.5993    5.5185    2.7650 C.ar      1 <0>        -0.1612
     26 C19         1.7056    4.7496    3.0721 C.ar      1 <0>         0.1018
     27 N5          1.6179    3.7555    3.9343 N.ar      1 <0>        -0.4655
     28 N6          0.1173   -2.7547   -2.4336 N.pl3     1 <0>        -0.4051
     29 C20         0.1636   -4.1130   -2.6124 C.2       1 <0>        -0.0555
     30 C21         0.1752   -4.3313   -3.9413 C.2       1 <0>        -0.0217
     31 N7          0.1372   -3.1426   -4.5612 N.2       1 <0>        -0.4854
     32 C22         0.0972   -2.1907   -3.6688 C.2       1 <0>         0.1897
     33 H3          0.9651    1.9002    0.0074 H         1 <0>         0.0740
     34 H4         -0.5781    1.8460   -0.8779 H         1 <0>         0.0698
     35 H5         -0.5724    1.8373    0.9020 H         1 <0>         0.0706
     36 H6          0.0174   -0.1354   -2.1148 H         1 <0>         0.1374
     37 H7          0.1556   -3.8717   -0.0399 H         1 <0>         0.1309
     38 H8          0.2137    0.7549    7.4112 H         1 <0>         0.1564
     39 H9          0.0787   -1.3531    8.5928 H         1 <0>         0.1752
     40 H10         0.1502    1.0586    3.7985 H         1 <0>         0.4317
     41 H11        -0.3909    2.4479    6.1972 H         1 <0>         0.0890
     42 H12         1.3718    2.2497    6.0492 H         1 <0>         0.0912
     43 H13        -1.5966    3.9204    4.7587 H         1 <0>         0.1372
     44 H14        -1.4953    5.8134    3.1505 H         1 <0>         0.1384
     45 H15         0.6783    6.3338    2.0611 H         1 <0>         0.1388
     46 H16         2.6540    4.9680    2.6040 H         1 <0>         0.1593
     47 H17         0.1864   -4.8639   -1.8366 H         1 <0>         0.1762
     48 H18         0.2092   -5.2967   -4.4243 H         1 <0>         0.1748
     49 H19         0.0570   -1.1319   -3.8778 H         1 <0>         0.2091
@<TRIPOS>BOND
     1    1    2 1
     2    1   33 1
     3    1   34 1
     4    1   35 1
     5    2    7 ar
     6    2    3 ar
     7    3    4 ar
     8    3   36 1
     9    4    5 ar
    10    4   28 1
    11    5    6 ar
    12    5   37 1
    13    6   10 1
    14    6    7 ar
    15    7    8 1
    16    8    9 2
    17    9   10 1
    18    9   12 1
    19   10   11 1
    20   12   18 1
    21   12   13 2
    22   13   14 1
    23   13   20 1
    24   14   15 2
    25   14   38 1
    26   15   16 1
    27   15   39 1
    28   16   17 1
    29   16   18 am
    30   18   19 2
    31   20   21 1
    32   20   40 1
    33   21   22 1
    34   21   41 1
    35   21   42 1
    36   22   27 ar
    37   22   23 ar
    38   23   24 ar
    39   23   43 1
    40   24   25 ar
    41   24   44 1
    42   25   26 ar
    43   25   45 1
    44   26   27 ar
    45   26   46 1
    46   28   32 1
    47   28   29 1
    48   29   30 2
    49   29   47 1
    50   30   31 1
    51   30   48 1
    52   31   32 2
    53   32   49 1
@<TRIPOS>MOLECULE
CHEMBL451331
   80    85     0     0     0
SMALL
USER_CHARGES

@<TRIPOS>ATOM
      1 C1          0.1710    1.0706    0.1810 C.3       1 <0>        -0.1136
      2 C2          0.1629   -0.4361    0.2125 C.ar      1 <0>         0.0128
      3 C3          0.1804   -1.1438   -0.9558 C.ar      1 <0>        -0.1924
      4 C4          0.1731   -2.5367   -0.9409 C.ar      1 <0>         0.2205
      5 C5          0.1478   -3.2228    0.2631 C.ar      1 <0>        -0.1990
      6 C6          0.1298   -2.5157    1.4557 C.ar      1 <0>         0.0932
      7 C7          0.1431   -1.1098    1.4375 C.ar      1 <0>         0.0262
      8 N1          0.1281   -0.6911    2.7286 N.2       1 <0>        -0.5190
      9 C8          0.1121   -1.7313    3.5295 C.2       1 <0>         0.3872
     10 N2          0.1034   -2.8856    2.7884 N.pl3     1 <0>        -0.5871
     11 H1          0.0920   -3.7918    3.1343 H         1 <0>         0.4329
     12 C9          0.0936   -1.6682    5.0003 C.2       1 <0>        -0.3047
     13 C10        -0.0282   -0.4376    5.6609 C.2       1 <0>         0.3598
     14 C11        -0.0421   -0.4227    7.0685 C.2       1 <0>        -0.2739
     15 C12         0.0610   -1.5804    7.7563 C.2       1 <0>         0.1880
     16 N3          0.1796   -2.7734    7.1163 N.am      1 <0>        -0.6200
     17 H2          0.2521   -3.5879    7.6380 H         1 <0>         0.4206
     18 C13         0.1925   -2.8473    5.7724 C.2       1 <0>         0.5579
     19 O1          0.2947   -3.9309    5.2215 O.2       1 <0>        -0.5695
     20 N4         -0.1321    0.7365    4.9450 N.pl3     1 <0>        -0.6841
     21 C14        -0.1380    2.0233    5.6452 C.3       1 <0>         0.0756
     22 C15        -0.2622    3.1578    4.6263 C.3       1 <0>         0.1440
     23 H3          0.5327    3.0696    3.8857 H         1 <0>         0.1191
     24 C16        -0.1450    4.4833    5.3336 C.ar      1 <0>        -0.1090
     25 C17        -1.2340    5.0069    6.0056 C.ar      1 <0>        -0.1062
     26 C18        -1.1273    6.2225    6.6546 C.ar      1 <0>        -0.1003
     27 C19         0.0684    6.9159    6.6317 C.ar      1 <0>        -0.1041
     28 C20         1.1583    6.3927    5.9595 C.ar      1 <0>        -0.0314
     29 C21         1.0526    5.1727    5.3151 C.ar      1 <0>        -0.0971
     30 Cl1         2.6602    7.2628    5.9304 Cl        1 <0>        -0.0609
     31 O2         -1.5314    3.0761    3.9748 O.3       1 <0>        -0.5432
     32 N5          0.1908   -3.2459   -2.1462 N.pl3     1 <0>        -0.6343
     33 C22         0.3085   -4.7105   -2.1514 C.3       1 <0>         0.1272
     34 C23        -0.8432   -5.2948   -2.9752 C.3       1 <0>        -0.1590
     35 C24        -0.8430   -4.6593   -4.3675 C.3       1 <0>         0.0292
     36 C25        -1.0572   -3.1493   -4.2409 C.3       1 <0>        -0.1589
     37 C26         0.0860   -2.5411   -3.4312 C.3       1 <0>         0.1288
     38 N6         -1.9259   -5.2416   -5.1714 N.4       1 <0>        -0.3847
     39 C27        -1.7203   -6.6909   -5.2927 C.3       1 <0>        -0.0063
     40 C28        -2.8583   -7.3006   -6.1143 C.3       1 <0>         0.0255
     41 N7         -2.8850   -6.6790   -7.4458 N.3       1 <0>        -0.5432
     42 C29        -3.0652   -5.2243   -7.3393 C.3       1 <0>         0.0254
     43 C30        -1.9256   -4.6317   -6.5076 C.3       1 <0>        -0.0062
     44 C31        -3.9301   -7.2789   -8.2860 C.3       1 <0>         0.0195
     45 H4          1.2006    1.4285    0.1871 H         1 <0>         0.0734
     46 H5         -0.3290    1.4178   -0.7231 H         1 <0>         0.0651
     47 H6         -0.3525    1.4551    1.0563 H         1 <0>         0.0765
     48 H7          0.1998   -0.6187   -1.8994 H         1 <0>         0.1275
     49 H8          0.1418   -4.3028    0.2723 H         1 <0>         0.1199
     50 H9         -0.1347    0.5140    7.5980 H         1 <0>         0.1544
     51 H10         0.0493   -1.5577    8.8360 H         1 <0>         0.1750
     52 H11        -0.2013    0.7103    3.9778 H         1 <0>         0.4332
     53 H12        -0.9827    2.0587    6.3332 H         1 <0>         0.0782
     54 H13         0.7909    2.1370    6.2042 H         1 <0>         0.0855
     55 H14        -2.1686    4.4658    6.0232 H         1 <0>         0.1282
     56 H15        -1.9783    6.6310    7.1794 H         1 <0>         0.1370
     57 H16         0.1515    7.8661    7.1382 H         1 <0>         0.1373
     58 H17         1.9045    4.7615    4.7939 H         1 <0>         0.1362
     59 H18        -2.2867    3.1473    4.5746 H         1 <0>         0.3766
     60 H19         1.2602   -4.9990   -2.5977 H         1 <0>         0.0733
     61 H20         0.2534   -5.0850   -1.1292 H         1 <0>         0.1026
     62 H21        -0.7140   -6.3732   -3.0675 H         1 <0>         0.0970
     63 H22        -1.7900   -5.0825   -2.4786 H         1 <0>         0.0909
     64 H23         0.1135   -4.8509   -4.8539 H         1 <0>         0.1389
     65 H24        -1.0802   -2.7006   -5.2340 H         1 <0>         0.0981
     66 H25        -2.0020   -2.9572   -3.7324 H         1 <0>         0.0911
     67 H26        -0.1158   -1.4849   -3.2532 H         1 <0>         0.1045
     68 H27         1.0191   -2.6488   -3.9842 H         1 <0>         0.0727
     69 H28        -0.7697   -6.8826   -5.7904 H         1 <0>         0.1379
     70 H29        -1.7077   -7.1405   -4.2998 H         1 <0>         0.1366
     71 H30        -2.6981   -8.3739   -6.2171 H         1 <0>         0.1236
     72 H31        -3.8077   -7.1210   -5.6099 H         1 <0>         0.0598
     73 H32        -3.0560   -4.7827   -8.3358 H         1 <0>         0.1238
     74 H33        -4.0181   -5.0104   -6.8551 H         1 <0>         0.0597
     75 H34        -2.0651   -3.5546   -6.4154 H         1 <0>         0.1370
     76 H35        -0.9739   -4.8339   -6.9991 H         1 <0>         0.1379
     77 H36        -4.9022   -7.1360   -7.8140 H         1 <0>         0.0393
     78 H37        -3.9280   -6.8006   -9.2654 H         1 <0>         0.0840
     79 H38        -3.7357   -8.3451   -8.4019 H         1 <0>         0.0843
     80 H39        -2.8113   -5.0644   -4.7212 H         1 <0>         0.4179
@<TRIPOS>BOND
     1    1    2 1
     2    1   45 1
     3    1   46 1
     4    1   47 1
     5    2    7 ar
     6    2    3 ar
     7    3    4 ar
     8    3   48 1
     9    4    5 ar
    10    4   32 1
    11    5    6 ar
    12    5   49 1
    13    6   10 1
    14    6    7 ar
    15    7    8 1
    16    8    9 2
    17    9   10 1
    18    9   12 1
    19   10   11 1
    20   12   18 1
    21   12   13 2
    22   13   14 1
    23   13   20 1
    24   14   15 2
    25   14   50 1
    26   15   16 1
    27   15   51 1
    28   16   17 1
    29   16   18 am
    30   18   19 2
    31   20   21 1
    32   20   52 1
    33   21   22 1
    34   21   53 1
    35   21   54 1
    36   22   23 1
    37   22   24 1
    38   22   31 1
    39   24   29 ar
    40   24   25 ar
    41   25   26 ar
    42   25   55 1
    43   26   27 ar
    44   26   56 1
    45   27   28 ar
    46   27   57 1
    47   28   29 ar
    48   28   30 1
    49   29   58 1
    50   31   59 1
    51   32   37 1
    52   32   33 1
    53   33   34 1
    54   33   60 1
    55   33   61 1
    56   34   35 1
    57   34   62 1
    58   34   63 1
    59   35   36 1
    60   35   38 1
    61   35   64 1
    62   36   37 1
    63   36   65 1
    64   36   66 1
    65   37   67 1
    66   37   68 1
    67   38   43 1
    68   38   39 1
    69   38   80 1
    70   39   40 1
    71   39   69 1
    72   39   70 1
    73   40   41 1
    74   40   71 1
    75   40   72 1
    76   41   42 1
    77   41   44 1
    78   42   43 1
    79   42   73 1
    80   42   74 1
    81   43   75 1
    82   43   76 1
    83   44   77 1
    84   44   78 1
    85   44   79 1
@<TRIPOS>MOLECULE
CHEMBL451331
   80    85     0     0     0
SMALL
USER_CHARGES

@<TRIPOS>ATOM
      1 C1          0.1710    1.0706    0.1810 C.3       1 <0>        -0.1118
      2 C2          0.1629   -0.4361    0.2125 C.ar      1 <0>         0.0115
      3 C3          0.1804   -1.1438   -0.9558 C.ar      1 <0>        -0.1938
      4 C4          0.1731   -2.5367   -0.9409 C.ar      1 <0>         0.2306
      5 C5          0.1478   -3.2228    0.2631 C.ar      1 <0>        -0.2061
      6 C6          0.1298   -2.5157    1.4557 C.ar      1 <0>         0.0969
      7 C7          0.1431   -1.1098    1.4375 C.ar      1 <0>         0.0194
      8 N1          0.1281   -0.6911    2.7286 N.2       1 <0>        -0.5174
      9 C8          0.1121   -1.7313    3.5295 C.2       1 <0>         0.3802
     10 N2          0.1034   -2.8856    2.7884 N.pl3     1 <0>        -0.5878
     11 H1          0.0920   -3.7918    3.1343 H         1 <0>         0.4318
     12 C9          0.0936   -1.6682    5.0003 C.2       1 <0>        -0.3004
     13 C10        -0.0282   -0.4376    5.6609 C.2       1 <0>         0.3570
     14 C11        -0.0421   -0.4227    7.0685 C.2       1 <0>        -0.2727
     15 C12         0.0610   -1.5804    7.7563 C.2       1 <0>         0.1853
     16 N3          0.1796   -2.7734    7.1163 N.am      1 <0>        -0.6202
     17 H2          0.2521   -3.5879    7.6380 H         1 <0>         0.4198
     18 C13         0.1925   -2.8473    5.7724 C.2       1 <0>         0.5568
     19 O1          0.2947   -3.9309    5.2215 O.2       1 <0>        -0.5689
     20 N4         -0.1321    0.7365    4.9450 N.pl3     1 <0>        -0.6849
     21 C14        -0.1380    2.0233    5.6452 C.3       1 <0>         0.0765
     22 C15        -0.2622    3.1578    4.6263 C.3       1 <0>         0.1434
     23 H3          0.5327    3.0696    3.8857 H         1 <0>         0.1193
     24 C16        -0.1450    4.4833    5.3336 C.ar      1 <0>        -0.1080
     25 C17        -1.2340    5.0069    6.0056 C.ar      1 <0>        -0.1061
     26 C18        -1.1273    6.2225    6.6546 C.ar      1 <0>        -0.1006
     27 C19         0.0684    6.9159    6.6317 C.ar      1 <0>        -0.1047
     28 C20         1.1583    6.3927    5.9595 C.ar      1 <0>        -0.0314
     29 C21         1.0526    5.1727    5.3151 C.ar      1 <0>        -0.0971
     30 Cl1         2.6602    7.2628    5.9304 Cl        1 <0>        -0.0616
     31 O2         -1.5314    3.0761    3.9748 O.3       1 <0>        -0.5425
     32 N5          0.1908   -3.2459   -2.1462 N.pl3     1 <0>        -0.6292
     33 C22         0.3085   -4.7105   -2.1514 C.3       1 <0>         0.1228
     34 C23        -0.8432   -5.2948   -2.9752 C.3       1 <0>        -0.1325
     35 C24        -0.8430   -4.6593   -4.3675 C.3       1 <0>         0.0910
     36 C25        -1.0572   -3.1493   -4.2409 C.3       1 <0>        -0.1312
     37 C26         0.0860   -2.5411   -3.4312 C.3       1 <0>         0.1244
     38 N6         -1.9259   -5.2416   -5.1714 N.3       1 <0>        -0.5356
     39 C27        -1.8009   -6.7043   -5.2428 C.3       1 <0>         0.0198
     40 C28        -2.9778   -7.2756   -6.0367 C.3       1 <0>        -0.0020
     41 N7         -2.9820   -6.7007   -7.3883 N.4       1 <0>        -0.3882
     42 C29        -3.1321   -5.2422   -7.3015 C.3       1 <0>        -0.0020
     43 C30        -1.9565   -4.6539   -6.5182 C.3       1 <0>         0.0206
     44 C31        -4.1012   -7.2631   -8.1558 C.3       1 <0>        -0.0458
     45 H4          1.2006    1.4285    0.1871 H         1 <0>         0.0715
     46 H5         -0.3290    1.4178   -0.7231 H         1 <0>         0.0643
     47 H6         -0.3525    1.4551    1.0563 H         1 <0>         0.0752
     48 H7          0.1998   -0.6187   -1.8994 H         1 <0>         0.1270
     49 H8          0.1418   -4.3028    0.2723 H         1 <0>         0.1194
     50 H9         -0.1347    0.5140    7.5980 H         1 <0>         0.1536
     51 H10         0.0493   -1.5577    8.8360 H         1 <0>         0.1740
     52 H11        -0.2013    0.7103    3.9778 H         1 <0>         0.4337
     53 H12        -0.9827    2.0587    6.3332 H         1 <0>         0.0773
     54 H13         0.7909    2.1370    6.2042 H         1 <0>         0.0846
     55 H14        -2.1686    4.4658    6.0232 H         1 <0>         0.1283
     56 H15        -1.9783    6.6310    7.1794 H         1 <0>         0.1367
     57 H16         0.1515    7.8661    7.1382 H         1 <0>         0.1369
     58 H17         1.9045    4.7615    4.7939 H         1 <0>         0.1363
     59 H18        -2.2867    3.1473    4.5746 H         1 <0>         0.3762
     60 H19         1.2602   -4.9990   -2.5977 H         1 <0>         0.0613
     61 H20         0.2534   -5.0850   -1.1292 H         1 <0>         0.0908
     62 H21        -0.7140   -6.3732   -3.0675 H         1 <0>         0.0728
     63 H22        -1.7900   -5.0825   -2.4786 H         1 <0>         0.0819
     64 H23         0.1135   -4.8509   -4.8539 H         1 <0>         0.0537
     65 H24        -1.0802   -2.7006   -5.2340 H         1 <0>         0.0737
     66 H25        -2.0020   -2.9572   -3.7324 H         1 <0>         0.0818
     67 H26        -0.1158   -1.4849   -3.2532 H         1 <0>         0.0924
     68 H27         1.0191   -2.6488   -3.9842 H         1 <0>         0.0606
     69 H28        -0.8663   -6.9656   -5.7392 H         1 <0>         0.0601
     70 H29        -1.8063   -7.1194   -4.2350 H         1 <0>         0.1266
     71 H30        -2.8795   -8.3591   -6.1030 H         1 <0>         0.1352
     72 H31        -3.9115   -7.0257   -5.5327 H         1 <0>         0.1373
     73 H32        -3.1482   -4.8182   -8.3055 H         1 <0>         0.1354
     74 H33        -4.0649   -5.0027   -6.7911 H         1 <0>         0.1373
     75 H34        -2.0754   -3.5732   -6.4408 H         1 <0>         0.1264
     76 H35        -1.0245   -4.8815   -7.0356 H         1 <0>         0.0601
     77 H36        -5.0403   -7.0245   -7.6565 H         1 <0>         0.1230
     78 H37        -4.1045   -6.8366   -9.1589 H         1 <0>         0.1241
     79 H38        -3.9893   -8.3453   -8.2215 H         1 <0>         0.1240
     80 H39        -2.1129   -6.9223   -7.8505 H         1 <0>         0.4221
@<TRIPOS>BOND
     1    1    2 1
     2    1   45 1
     3    1   46 1
     4    1   47 1
     5    2    7 ar
     6    2    3 ar
     7    3    4 ar
     8    3   48 1
     9    4    5 ar
    10    4   32 1
    11    5    6 ar
    12    5   49 1
    13    6   10 1
    14    6    7 ar
    15    7    8 1
    16    8    9 2
    17    9   10 1
    18    9   12 1
    19   10   11 1
    20   12   18 1
    21   12   13 2
    22   13   14 1
    23   13   20 1
    24   14   15 2
    25   14   50 1
    26   15   16 1
    27   15   51 1
    28   16   17 1
    29   16   18 am
    30   18   19 2
    31   20   21 1
    32   20   52 1
    33   21   22 1
    34   21   53 1
    35   21   54 1
    36   22   23 1
    37   22   24 1
    38   22   31 1
    39   24   29 ar
    40   24   25 ar
    41   25   26 ar
    42   25   55 1
    43   26   27 ar
    44   26   56 1
    45   27   28 ar
    46   27   57 1
    47   28   29 ar
    48   28   30 1
    49   29   58 1
    50   31   59 1
    51   32   37 1
    52   32   33 1
    53   33   34 1
    54   33   60 1
    55   33   61 1
    56   34   35 1
    57   34   62 1
    58   34   63 1
    59   35   36 1
    60   35   38 1
    61   35   64 1
    62   36   37 1
    63   36   65 1
    64   36   66 1
    65   37   67 1
    66   37   68 1
    67   38   43 1
    68   38   39 1
    69   39   40 1
    70   39   69 1
    71   39   70 1
    72   40   41 1
    73   40   71 1
    74   40   72 1
    75   41   42 1
    76   41   44 1
    77   41   80 1
    78   42   43 1
    79   42   73 1
    80   42   74 1
    81   43   75 1
    82   43   76 1
    83   44   77 1
    84   44   78 1
    85   44   79 1
@<TRIPOS>MOLECULE
CHEMBL1089300
   89    91     0     0     0
SMALL
USER_CHARGES

@<TRIPOS>ATOM
      1 C1         -1.9415    2.2280    0.4847 C.3       1 <0>        -0.1838
      2 C2         -1.8953    0.7441    0.1150 C.3       1 <0>         0.2445
      3 O1         -3.0685    0.0700    0.6190 O.3       1 <0>        -0.3516
      4 C3         -2.7516   -0.1475    2.0154 C.3       1 <0>         0.0569
      5 H1         -2.9496    0.7507    2.6004 H         1 <0>         0.0983
      6 C4         -1.2385   -0.4554    1.9817 C.3       1 <0>         0.0590
      7 H2         -1.0711   -1.5324    1.9914 H         1 <0>         0.1009
      8 O2         -0.7683    0.1122    0.7459 O.3       1 <0>        -0.3478
      9 C5         -0.5360    0.2013    3.1717 C.3       1 <0>         0.0945
     10 H3         -0.5950    1.2854    3.0754 H         1 <0>         0.0880
     11 C6          0.9319   -0.2292    3.1985 C.3       1 <0>        -0.0695
     12 H4          0.9914   -1.3175    3.2009 H         1 <0>         0.1014
     13 C7          1.6019    0.3210    4.4592 C.3       1 <0>         0.1423
     14 N1          2.9752   -0.1823    4.5417 N.am      1 <0>        -0.7068
     15 C8          3.7621    0.1731    5.5765 C.2       1 <0>         0.6520
     16 O3          3.3326    0.9110    6.4410 O.2       1 <0>        -0.5656
     17 O4          5.0243   -0.2895    5.6523 O.3       1 <0>        -0.3582
     18 C9          5.8018    0.1279    6.7763 C.3       1 <0>         0.1353
     19 C10         5.1184   -0.3285    8.0669 C.3       1 <0>        -0.1857
     20 C11         7.1970   -0.4941    6.6905 C.3       1 <0>        -0.1414
     21 C12         5.9223    1.6531    6.7749 C.3       1 <0>        -0.1861
     22 C13         1.6357    0.3097    1.9797 C.ar      1 <0>        -0.0575
     23 C14         1.6956    1.6741    1.7646 C.ar      1 <0>        -0.0921
     24 C15         2.3404    2.1732    0.6484 C.ar      1 <0>        -0.0945
     25 C16         2.9283    1.3062   -0.2583 C.ar      1 <0>         0.0340
     26 C17         2.8679   -0.0682   -0.0417 C.ar      1 <0>         0.0391
     27 C18         2.2249   -0.5611    1.0822 C.ar      1 <0>        -0.0821
     28 O5          3.5137   -0.6999   -1.0650 O.3       1 <0>        -0.3092
     29 C19         3.6145    0.2774   -2.1176 C.3       1 <0>         0.2142
     30 O6          3.6120    1.5356   -1.4173 O.3       1 <0>        -0.3100
     31 O7         -1.1736   -0.2046    4.3845 O.3       1 <0>        -0.3853
     32 C20        -1.3332    0.8480    5.3378 C.3       1 <0>         0.2033
     33 O8         -2.4045    1.7014    4.9302 O.3       1 <0>        -0.3971
     34 C21        -3.7039    1.1528    5.1595 C.3       1 <0>         0.0223
     35 C22        -3.5380   -1.3369    2.5702 C.3       1 <0>         0.0872
     36 O9         -4.9332   -1.0280    2.5685 O.3       1 <0>        -0.6023
     37 Si1        -5.8694   -2.1836    3.2381 Si        1 <0>         1.1370
     38 C23        -5.5494   -3.8110    2.3895 C.3       1 <0>        -0.4835
     39 C24        -5.4647   -2.3380    5.0501 C.3       1 <0>        -0.4906
     40 C25        -7.6633   -1.7219    3.0396 C.3       1 <0>        -0.3690
     41 C26        -7.9956   -1.5952    1.5515 C.3       1 <0>        -0.1224
     42 C27        -8.5414   -2.8060    3.6677 C.3       1 <0>        -0.1266
     43 C28        -7.9261   -0.3854    3.7365 C.3       1 <0>        -0.1216
     44 C29        -1.8063    0.5834   -1.4039 C.3       1 <0>        -0.1397
     45 H5         -1.0252    2.7145    0.1502 H         1 <0>         0.0761
     46 H6         -2.7989    2.6964    0.0013 H         1 <0>         0.0758
     47 H7         -2.0333    2.3303    1.5660 H         1 <0>         0.0637
     48 H8          1.6160    1.4101    4.4174 H         1 <0>         0.0740
     49 H9          1.0432   -0.0017    5.3378 H         1 <0>         0.0821
     50 H10         3.3181   -0.7714    3.8516 H         1 <0>         0.4074
     51 H11         5.0325   -1.4151    8.0679 H         1 <0>         0.0591
     52 H12         5.7115   -0.0101    8.9243 H         1 <0>         0.0703
     53 H13         4.1244    0.1146    8.1280 H         1 <0>         0.0875
     54 H14         7.6839   -0.1689    5.7711 H         1 <0>         0.0667
     55 H15         7.7901   -0.1757    7.5479 H         1 <0>         0.0810
     56 H16         7.1111   -1.5807    6.6915 H         1 <0>         0.0667
     57 H17         4.9283    2.0962    6.8360 H         1 <0>         0.0875
     58 H18         6.5154    1.9715    7.6323 H         1 <0>         0.0703
     59 H19         6.4092    1.9783    5.8555 H         1 <0>         0.0591
     60 H20         1.2372    2.3514    2.4700 H         1 <0>         0.1304
     61 H21         2.3857    3.2395    0.4829 H         1 <0>         0.1332
     62 H22         2.1805   -1.6262    1.2551 H         1 <0>         0.1317
     63 H23         4.5445    0.1493   -2.6714 H         1 <0>         0.1310
     64 H24         2.7567    0.2097   -2.7866 H         1 <0>         0.0843
     65 H25        -1.5597    0.4218    6.3151 H         1 <0>         0.0997
     66 H26        -0.4111    1.4261    5.3984 H         1 <0>         0.0984
     67 H27        -3.7751    0.1754    4.6822 H         1 <0>         0.0534
     68 H28        -3.8695    1.0465    6.2316 H         1 <0>         0.0452
     69 H29        -4.4584    1.8180    4.7395 H         1 <0>         0.0879
     70 H30        -3.3591   -2.2132    1.9471 H         1 <0>         0.0625
     71 H31        -3.2129   -1.5436    3.5899 H         1 <0>         0.0757
     72 H32        -4.4998   -4.0811    2.5057 H         1 <0>         0.0796
     73 H33        -6.1750   -4.5833    2.8371 H         1 <0>         0.0863
     74 H34        -5.7861   -3.7207    1.3294 H         1 <0>         0.0873
     75 H35        -5.7321   -1.4136    5.5621 H         1 <0>         0.0849
     76 H36        -6.0280   -3.1668    5.4788 H         1 <0>         0.0852
     77 H37        -4.3973   -2.5238    5.1694 H         1 <0>         0.0793
     78 H38        -7.8084   -2.5473    1.0550 H         1 <0>         0.0510
     79 H39        -9.0452   -1.3250    1.4353 H         1 <0>         0.0516
     80 H40        -7.3700   -0.8229    1.1040 H         1 <0>         0.0588
     81 H41        -8.3047   -2.8963    4.7279 H         1 <0>         0.0537
     82 H42        -9.5910   -2.5358    3.5516 H         1 <0>         0.0546
     83 H43        -8.3542   -3.7581    3.1713 H         1 <0>         0.0535
     84 H44        -7.3005    0.3869    3.2890 H         1 <0>         0.0575
     85 H45        -8.9757   -0.1153    3.6203 H         1 <0>         0.0520
     86 H46        -7.6893   -0.4757    4.7966 H         1 <0>         0.0511
     87 H47        -0.8960    1.0605   -1.7671 H         1 <0>         0.0756
     88 H48        -1.7865   -0.4767   -1.6566 H         1 <0>         0.0699
     89 H49        -2.6729    1.0519   -1.8703 H         1 <0>         0.0776
@<TRIPOS>BOND
     1    1    2 1
     2    1   45 1
     3    1   46 1
     4    1   47 1
     5    2    8 1
     6    2    3 1
     7    2   44 1
     8    3    4 1
     9    4    5 1
    10    4    6 1
    11    4   35 1
    12    6    7 1
    13    6    8 1
    14    6    9 1
    15    9   10 1
    16    9   11 1
    17    9   31 1
    18   11   12 1
    19   11   13 1
    20   11   22 1
    21   13   14 1
    22   13   48 1
    23   13   49 1
    24   14   15 am
    25   14   50 1
    26   15   16 2
    27   15   17 1
    28   17   18 1
    29   18   19 1
    30   18   20 1
    31   18   21 1
    32   19   51 1
    33   19   52 1
    34   19   53 1
    35   20   54 1
    36   20   55 1
    37   20   56 1
    38   21   57 1
    39   21   58 1
    40   21   59 1
    41   22   27 ar
    42   22   23 ar
    43   23   24 ar
    44   23   60 1
    45   24   25 ar
    46   24   61 1
    47   25   30 1
    48   25   26 ar
    49   26   27 ar
    50   26   28 1
    51   27   62 1
    52   28   29 1
    53   29   30 1
    54   29   63 1
    55   29   64 1
    56   31   32 1
    57   32   33 1
    58   32   65 1
    59   32   66 1
    60   33   34 1
    61   34   67 1
    62   34   68 1
    63   34   69 1
    64   35   36 1
    65   35   70 1
    66   35   71 1
    67   36   37 1
    68   37   38 1
    69   37   39 1
    70   37   40 1
    71   38   72 1
    72   38   73 1
    73   38   74 1
    74   39   75 1
    75   39   76 1
    76   39   77 1
    77   40   41 1
    78   40   42 1
    79   40   43 1
    80   41   78 1
    81   41   79 1
    82   41   80 1
    83   42   81 1
    84   42   82 1
    85   42   83 1
    86   43   84 1
    87   43   85 1
    88   43   86 1
    89   44   87 1
    90   44   88 1
    91   44   89 1
@<TRIPOS>MOLECULE
CHEMBL500157
   51    53     0     0     0
SMALL
USER_CHARGES

@<TRIPOS>ATOM
      1 C1         -4.1332   -6.0382    2.6130 C.ar      1 <0>        -0.0725
      2 C2         -4.6251   -7.0390    3.4293 C.ar      1 <0>        -0.1520
      3 C3         -5.8699   -6.9007    4.0197 C.ar      1 <0>         0.1047
      4 C4         -6.6203   -5.7598    3.7915 C.ar      1 <0>        -0.1519
      5 C5         -6.1263   -4.7603    2.9748 C.ar      1 <0>        -0.0725
      6 C6         -4.8834   -4.8994    2.3858 C.ar      1 <0>        -0.0912
      7 C7         -4.3458   -3.8089    1.4955 C.3       1 <0>        -0.0942
      8 C8         -4.7698   -4.0673    0.0726 C.2       1 <0>         0.5148
      9 O1         -5.4420   -5.0409   -0.1922 O.2       1 <0>        -0.4478
     10 N1         -4.4016   -3.2162   -0.9054 N.am      1 <0>        -0.6887
     11 C9         -4.7808   -3.4474   -2.1779 C.2       1 <0>         0.6942
     12 O2         -5.4548   -4.4234   -2.4434 O.2       1 <0>        -0.5050
     13 N2         -4.4127   -2.5963   -3.1559 N.am      1 <0>        -0.6775
     14 C10        -4.7365   -2.8792   -4.4894 C.ar      1 <0>         0.1969
     15 C11        -3.8545   -2.5371   -5.5057 C.ar      1 <0>        -0.1389
     16 C12        -4.1732   -2.8157   -6.8204 C.ar      1 <0>        -0.0682
     17 C13        -5.3746   -3.4370   -7.1267 C.ar      1 <0>         0.0273
     18 C14        -6.2582   -3.7801   -6.1109 C.ar      1 <0>         0.1229
     19 C15        -5.9367   -3.5068   -4.7942 C.ar      1 <0>        -0.1468
     20 F1         -7.4289   -4.3849   -6.4092 F         1 <0>        -0.1193
     21 O3         -5.6880   -3.7102   -8.4216 O.3       1 <0>        -0.2324
     22 C16        -6.4186   -2.7953   -9.1067 C.ar      1 <0>         0.2248
     23 C17        -6.9228   -1.6629   -8.4718 C.ar      1 <0>        -0.3068
     24 C18        -7.6612   -0.7521   -9.1977 C.ar      1 <0>         0.2007
     25 N3         -7.8996   -0.9334  -10.4841 N.ar      1 <0>        -0.5584
     26 C19        -7.4453   -1.9906  -11.1379 C.ar      1 <0>         0.4623
     27 C20        -6.6812   -2.9619  -10.4748 C.ar      1 <0>        -0.1376
     28 C21        -6.1825   -4.1043  -11.1796 C.1       1 <0>        -0.0935
     29 C22        -5.7737   -5.0409  -11.7574 C.1       1 <0>        -0.1730
     30 C23        -5.2610   -6.2153  -12.4819 C.3       1 <0>         0.1948
     31 O4         -5.6660   -6.1448  -13.8505 O.3       1 <0>        -0.5680
     32 N4         -7.7227   -2.1367  -12.4896 N.pl3     1 <0>        -0.8335
     33 F2         -6.3520   -7.8786    4.8176 F         1 <0>        -0.1379
     34 H1         -3.1604   -6.1438    2.1559 H         1 <0>         0.1323
     35 H2         -4.0390   -7.9287    3.6063 H         1 <0>         0.1379
     36 H3         -7.5915   -5.6510    4.2512 H         1 <0>         0.1379
     37 H4         -6.7117   -3.8704    2.7963 H         1 <0>         0.1325
     38 H5         -4.7386   -2.8462    1.8225 H         1 <0>         0.1146
     39 H6         -3.2574   -3.7959    1.5536 H         1 <0>         0.1145
     40 H7         -3.8638   -2.4373   -0.6935 H         1 <0>         0.4135
     41 H8         -3.9236   -1.7879   -2.9367 H         1 <0>         0.4154
     42 H9         -2.9189   -2.0525   -5.2682 H         1 <0>         0.1461
     43 H10        -3.4866   -2.5492   -7.6103 H         1 <0>         0.1501
     44 H11        -6.6211   -3.7772   -4.0036 H         1 <0>         0.1623
     45 H12        -6.7374   -1.4997   -7.4204 H         1 <0>         0.1400
     46 H13        -8.0523    0.1257   -8.7049 H         1 <0>         0.1668
     47 H14        -4.1726   -6.2305  -12.4254 H         1 <0>         0.0733
     48 H15        -5.6610   -7.1235  -12.0309 H         1 <0>         0.0747
     49 H16        -5.3627   -6.8883  -14.3892 H         1 <0>         0.3889
     50 H17        -8.2480   -1.4652  -12.9522 H         1 <0>         0.4106
     51 H18        -7.3913   -2.9103  -12.9719 H         1 <0>         0.4129
@<TRIPOS>BOND
     1    1    6 ar
     2    1    2 ar
     3    1   34 1
     4    2    3 ar
     5    2   35 1
     6    3    4 ar
     7    3   33 1
     8    4    5 ar
     9    4   36 1
    10    5    6 ar
    11    5   37 1
    12    6    7 1
    13    7    8 1
    14    7   38 1
    15    7   39 1
    16    8    9 2
    17    8   10 am
    18   10   11 am
    19   10   40 1
    20   11   12 2
    21   11   13 am
    22   13   14 1
    23   13   41 1
    24   14   19 ar
    25   14   15 ar
    26   15   16 ar
    27   15   42 1
    28   16   17 ar
    29   16   43 1
    30   17   18 ar
    31   17   21 1
    32   18   19 ar
    33   18   20 1
    34   19   44 1
    35   21   22 1
    36   22   27 ar
    37   22   23 ar
    38   23   24 ar
    39   23   45 1
    40   24   25 ar
    41   24   46 1
    42   25   26 ar
    43   26   27 ar
    44   26   32 1
    45   27   28 1
    46   28   29 3
    47   29   30 1
    48   30   31 1
    49   30   47 1
    50   30   48 1
    51   31   49 1
    52   32   50 1
    53   32   51 1
@<TRIPOS>MOLECULE
CHEMBL17157
   77    80     0     0     0
SMALL
USER_CHARGES

@<TRIPOS>ATOM
      1 C1         -0.0187    1.5258    0.0104 C.3       1 <0>        -0.1411
      2 C2          0.0021   -0.0041    0.0020 C.3       1 <0>        -0.0339
      3 C3          0.7421   -0.5109    1.2415 C.3       1 <0>        -0.1396
      4 C4         -1.4333   -0.5336    0.0129 C.3       1 <0>        -0.1471
      5 C5          0.7074   -0.4901   -1.2379 C.ar      1 <0>        -0.0573
      6 C6          0.0361   -1.2843   -2.1485 C.ar      1 <0>        -0.1170
      7 C7          0.6831   -1.7301   -3.2859 C.ar      1 <0>        -0.1069
      8 C8          2.0014   -1.3813   -3.5127 C.ar      1 <0>        -0.1350
      9 C9          2.6724   -0.5863   -2.6025 C.ar      1 <0>        -0.1086
     10 C10         2.0241   -0.1370   -1.4673 C.ar      1 <0>        -0.1101
     11 C11         2.7070   -1.8681   -4.7521 C.3       1 <0>         0.1534
     12 C12         3.4826   -3.1466   -4.4285 C.3       1 <0>        -0.1446
     13 C13         4.0965   -3.7094   -5.7119 C.3       1 <0>        -0.1461
     14 C14         4.8721   -4.9880   -5.3882 C.3       1 <0>        -0.0105
     15 N1          5.4616   -5.5283   -6.6205 N.4       1 <0>        -0.3825
     16 C15         4.3893   -5.9359   -7.5362 C.3       1 <0>        -0.0079
     17 C16         4.9963   -6.4242   -8.8533 C.3       1 <0>        -0.1502
     18 C17         5.9132   -7.6186   -8.5747 C.3       1 <0>        -0.1254
     19 C18         6.9835   -7.2026   -7.5614 C.3       1 <0>        -0.1411
     20 C19         6.3029   -6.6855   -6.2922 C.3       1 <0>        -0.0059
     21 C20         6.5853   -8.0622   -9.8756 C.3       1 <0>         0.2368
     22 C21         7.4872   -9.2375   -9.5998 C.ar      1 <0>        -0.0804
     23 C22         7.1794  -10.1210   -8.5821 C.ar      1 <0>        -0.1184
     24 C23         8.0068  -11.1992   -8.3291 C.ar      1 <0>        -0.1187
     25 C24         9.1416  -11.3941   -9.0940 C.ar      1 <0>        -0.1096
     26 C25         9.4488  -10.5111  -10.1122 C.ar      1 <0>        -0.1165
     27 C26         8.6192   -9.4354  -10.3680 C.ar      1 <0>        -0.0878
     28 C27         5.5305   -8.4620  -10.8749 C.ar      1 <0>        -0.1231
     29 C28         4.3262   -8.9814  -10.4383 C.ar      1 <0>        -0.1160
     30 C29         3.3586   -9.3481  -11.3549 C.ar      1 <0>        -0.1179
     31 C30         3.5953   -9.1951  -12.7082 C.ar      1 <0>        -0.1087
     32 C31         4.7993   -8.6749  -13.1449 C.ar      1 <0>        -0.1135
     33 C32         5.7651   -8.3041  -12.2281 C.ar      1 <0>        -0.0981
     34 O1          7.3579   -6.9827  -10.4047 O.3       1 <0>        -0.5402
     35 O2          3.6145   -0.8634   -5.2093 O.3       1 <0>        -0.5536
     36 H1          1.0039    1.9031    0.0027 H         1 <0>         0.0573
     37 H2         -0.5459    1.8868   -0.8726 H         1 <0>         0.0574
     38 H3         -0.5289    1.8773    0.9072 H         1 <0>         0.0630
     39 H4          0.2319   -0.1594    2.1383 H         1 <0>         0.0629
     40 H5          0.7568   -1.6008    1.2356 H         1 <0>         0.0558
     41 H6          1.7647   -0.1336    1.2338 H         1 <0>         0.0569
     42 H7         -1.9605   -0.1726   -0.8702 H         1 <0>         0.0595
     43 H8         -1.4185   -1.6235    0.0069 H         1 <0>         0.0584
     44 H9         -1.9435   -0.1821    0.9097 H         1 <0>         0.0628
     45 H10        -0.9938   -1.5568   -1.9713 H         1 <0>         0.1305
     46 H11         0.1588   -2.3512   -3.9970 H         1 <0>         0.1214
     47 H12         3.7024   -0.3141   -2.7796 H         1 <0>         0.1179
     48 H13         2.5473    0.4872   -0.7580 H         1 <0>         0.1246
     49 H14         1.9727   -2.0758   -5.5304 H         1 <0>         0.1086
     50 H15         4.2753   -2.9201   -3.7155 H         1 <0>         0.0792
     51 H16         2.8050   -3.8831   -3.9965 H         1 <0>         0.0854
     52 H17         3.3038   -3.9360   -6.4249 H         1 <0>         0.0876
     53 H18         4.7741   -2.9730   -6.1439 H         1 <0>         0.0944
     54 H19         5.6649   -4.7614   -4.6753 H         1 <0>         0.1305
     55 H20         4.1946   -5.7244   -4.9563 H         1 <0>         0.1286
     56 H21         3.8112   -6.7410   -7.0826 H         1 <0>         0.1288
     57 H22         3.7357   -5.0856   -7.7310 H         1 <0>         0.1342
     58 H23         4.1986   -6.7280   -9.5312 H         1 <0>         0.1192
     59 H24         5.5744   -5.6197   -9.3080 H         1 <0>         0.0900
     60 H25         5.3260   -8.4417   -8.1674 H         1 <0>         0.1024
     61 H26         7.6062   -8.0628   -7.3158 H         1 <0>         0.1172
     62 H27         7.6029   -6.4143   -7.9892 H         1 <0>         0.0977
     63 H28         7.0620   -6.3885   -5.5686 H         1 <0>         0.1316
     64 H29         5.6840   -7.4745   -5.8651 H         1 <0>         0.1273
     65 H30         6.2928   -9.9687   -7.9845 H         1 <0>         0.1184
     66 H31         7.7667  -11.8890   -7.5336 H         1 <0>         0.1258
     67 H32         9.7883  -12.2360   -8.8958 H         1 <0>         0.1265
     68 H33        10.3356  -10.6632  -10.7096 H         1 <0>         0.1271
     69 H34         8.8573   -8.7476  -11.1660 H         1 <0>         0.1290
     70 H35         4.1413   -9.1009   -9.3809 H         1 <0>         0.1187
     71 H36         2.4180   -9.7546  -11.0138 H         1 <0>         0.1254
     72 H37         2.8396   -9.4823  -13.4244 H         1 <0>         0.1267
     73 H38         4.9843   -8.5557  -14.2022 H         1 <0>         0.1275
     74 H39         6.7043   -7.8942  -12.5691 H         1 <0>         0.1293
     75 H40         6.8409   -6.1908  -10.6062 H         1 <0>         0.3776
     76 H41         4.2971   -0.6279   -4.5662 H         1 <0>         0.3768
     77 H42         6.0260   -4.8178   -7.0618 H         1 <0>         0.4231
@<TRIPOS>BOND
     1    1    2 1
     2    1   36 1
     3    1   37 1
     4    1   38 1
     5    2    3 1
     6    2    4 1
     7    2    5 1
     8    3   39 1
     9    3   40 1
    10    3   41 1
    11    4   42 1
    12    4   43 1
    13    4   44 1
    14    5   10 ar
    15    5    6 ar
    16    6    7 ar
    17    6   45 1
    18    7    8 ar
    19    7   46 1
    20    8    9 ar
    21    8   11 1
    22    9   10 ar
    23    9   47 1
    24   10   48 1
    25   11   12 1
    26   11   35 1
    27   11   49 1
    28   12   13 1
    29   12   50 1
    30   12   51 1
    31   13   14 1
    32   13   52 1
    33   13   53 1
    34   14   15 1
    35   14   54 1
    36   14   55 1
    37   15   20 1
    38   15   16 1
    39   15   77 1
    40   16   17 1
    41   16   56 1
    42   16   57 1
    43   17   18 1
    44   17   58 1
    45   17   59 1
    46   18   19 1
    47   18   21 1
    48   18   60 1
    49   19   20 1
    50   19   61 1
    51   19   62 1
    52   20   63 1
    53   20   64 1
    54   21   22 1
    55   21   28 1
    56   21   34 1
    57   22   27 ar
    58   22   23 ar
    59   23   24 ar
    60   23   65 1
    61   24   25 ar
    62   24   66 1
    63   25   26 ar
    64   25   67 1
    65   26   27 ar
    66   26   68 1
    67   27   69 1
    68   28   33 ar
    69   28   29 ar
    70   29   30 ar
    71   29   70 1
    72   30   31 ar
    73   30   71 1
    74   31   32 ar
    75   31   72 1
    76   32   33 ar
    77   32   73 1
    78   33   74 1
    79   34   75 1
    80   35   76 1
@<TRIPOS>MOLECULE
CHEMBL17157
   77    80     0     0     0
SMALL
USER_CHARGES

@<TRIPOS>ATOM
      1 C1         -0.0187    1.5258    0.0104 C.3       1 <0>        -0.1396
      2 C2          0.0021   -0.0041    0.0020 C.3       1 <0>        -0.0340
      3 C3          0.7421   -0.5109    1.2415 C.3       1 <0>        -0.1410
      4 C4         -1.4333   -0.5336    0.0129 C.3       1 <0>        -0.1472
      5 C5          0.7074   -0.4901   -1.2379 C.ar      1 <0>        -0.0568
      6 C6          0.0361   -1.2843   -2.1485 C.ar      1 <0>        -0.1169
      7 C7          0.6831   -1.7301   -3.2859 C.ar      1 <0>        -0.1056
      8 C8          2.0014   -1.3813   -3.5127 C.ar      1 <0>        -0.1351
      9 C9          2.6724   -0.5863   -2.6025 C.ar      1 <0>        -0.1089
     10 C10         2.0241   -0.1370   -1.4673 C.ar      1 <0>        -0.1107
     11 C11         2.7070   -1.8681   -4.7521 C.3       1 <0>         0.1532
     12 C12         2.7266   -0.7527   -5.7992 C.3       1 <0>        -0.1446
     13 C13         3.3309   -1.2850   -7.1002 C.3       1 <0>        -0.1465
     14 C14         3.3504   -0.1697   -8.1473 C.3       1 <0>        -0.0106
     15 N1          3.9306   -0.6807   -9.3963 N.4       1 <0>        -0.3825
     16 C15         5.3364   -1.0378   -9.1709 C.3       1 <0>        -0.0080
     17 C16         5.9229   -1.6462  -10.4466 C.3       1 <0>        -0.1500
     18 C17         5.8303   -0.6235  -11.5826 C.3       1 <0>        -0.1254
     19 C18         4.3685   -0.2025  -11.7593 C.3       1 <0>        -0.1411
     20 C19         3.8396    0.3524  -10.4350 C.3       1 <0>        -0.0060
     21 C20         6.3420   -1.2523  -12.8802 C.3       1 <0>         0.2368
     22 C21         6.2502   -0.2448  -13.9970 C.ar      1 <0>        -0.0804
     23 C22         6.3770    1.1042  -13.7231 C.ar      1 <0>        -0.1183
     24 C23         6.2928    2.0285  -14.7476 C.ar      1 <0>        -0.1187
     25 C24         6.0823    1.6037  -16.0461 C.ar      1 <0>        -0.1097
     26 C25         5.9564    0.2546  -16.3202 C.ar      1 <0>        -0.1165
     27 C26         6.0449   -0.6699  -15.2963 C.ar      1 <0>        -0.0878
     28 C27         7.7775   -1.6749  -12.7015 C.ar      1 <0>        -0.1231
     29 C28         8.5976   -0.9849  -11.8284 C.ar      1 <0>        -0.1159
     30 C29         9.9143   -1.3726  -11.6646 C.ar      1 <0>        -0.1178
     31 C30        10.4108   -2.4504  -12.3735 C.ar      1 <0>        -0.1087
     32 C31         9.5905   -3.1409  -13.2460 C.ar      1 <0>        -0.1136
     33 C32         8.2726   -2.7559  -13.4066 C.ar      1 <0>        -0.0981
     34 O1          5.5458   -2.3944  -13.2023 O.3       1 <0>        -0.5403
     35 O2          4.0481   -2.2362   -4.4232 O.3       1 <0>        -0.5536
     36 H1          1.0039    1.9031    0.0027 H         1 <0>         0.0567
     37 H2         -0.5459    1.8868   -0.8726 H         1 <0>         0.0559
     38 H3         -0.5289    1.8773    0.9072 H         1 <0>         0.0630
     39 H4          0.2319   -0.1594    2.1383 H         1 <0>         0.0630
     40 H5          0.7568   -1.6008    1.2356 H         1 <0>         0.0575
     41 H6          1.7647   -0.1336    1.2338 H         1 <0>         0.0571
     42 H7         -1.9605   -0.1726   -0.8702 H         1 <0>         0.0586
     43 H8         -1.4185   -1.6235    0.0069 H         1 <0>         0.0596
     44 H9         -1.9435   -0.1821    0.9097 H         1 <0>         0.0628
     45 H10        -0.9938   -1.5568   -1.9713 H         1 <0>         0.1308
     46 H11         0.1588   -2.3512   -3.9970 H         1 <0>         0.1219
     47 H12         3.7024   -0.3141   -2.7796 H         1 <0>         0.1171
     48 H13         2.5473    0.4872   -0.7580 H         1 <0>         0.1244
     49 H14         2.1806   -2.7341   -5.1535 H         1 <0>         0.1089
     50 H15         1.7084   -0.4107   -5.9848 H         1 <0>         0.0859
     51 H16         3.3281    0.0791   -5.4328 H         1 <0>         0.0786
     52 H17         4.3490   -1.6270   -6.9146 H         1 <0>         0.0944
     53 H18         2.7293   -2.1169   -7.4666 H         1 <0>         0.0879
     54 H19         2.3322    0.1723   -8.3329 H         1 <0>         0.1306
     55 H20         3.9520    0.6622   -7.7809 H         1 <0>         0.1285
     56 H21         5.8994   -0.1438   -8.9030 H         1 <0>         0.1286
     57 H22         5.4009   -1.7633   -8.3600 H         1 <0>         0.1353
     58 H23         6.9672   -1.9090  -10.2777 H         1 <0>         0.1193
     59 H24         5.3607   -2.5405  -10.7152 H         1 <0>         0.0897
     60 H25         6.4340    0.2501  -11.3368 H         1 <0>         0.1024
     61 H26         4.3017    0.5667  -12.5288 H         1 <0>         0.1172
     62 H27         3.7740   -1.0668  -12.0552 H         1 <0>         0.0976
     63 H28         2.7991    0.6533  -10.5574 H         1 <0>         0.1316
     64 H29         4.4346    1.2168  -10.1402 H         1 <0>         0.1273
     65 H30         6.5415    1.4361  -12.7086 H         1 <0>         0.1184
     66 H31         6.3912    3.0824  -14.5334 H         1 <0>         0.1258
     67 H32         6.0158    2.3258  -16.8464 H         1 <0>         0.1265
     68 H33         5.7916   -0.0772  -17.3346 H         1 <0>         0.1271
     69 H34         5.9502   -1.7241  -15.5109 H         1 <0>         0.1290
     70 H35         8.2096   -0.1429  -11.2745 H         1 <0>         0.1187
     71 H36        10.5552   -0.8331  -10.9829 H         1 <0>         0.1255
     72 H37        11.4398   -2.7528  -12.2460 H         1 <0>         0.1267
     73 H38         9.9786   -3.9828  -13.8001 H         1 <0>         0.1275
     74 H39         7.6307   -3.2977  -14.0854 H         1 <0>         0.1292
     75 H40         5.5578   -3.0856  -12.5261 H         1 <0>         0.3776
     76 H41         4.5766   -1.5127   -4.0595 H         1 <0>         0.3762
     77 H42         3.4209   -1.4997   -9.6923 H         1 <0>         0.4227
@<TRIPOS>BOND
     1    1    2 1
     2    1   36 1
     3    1   37 1
     4    1   38 1
     5    2    3 1
     6    2    4 1
     7    2    5 1
     8    3   39 1
     9    3   40 1
    10    3   41 1
    11    4   42 1
    12    4   43 1
    13    4   44 1
    14    5   10 ar
    15    5    6 ar
    16    6    7 ar
    17    6   45 1
    18    7    8 ar
    19    7   46 1
    20    8    9 ar
    21    8   11 1
    22    9   10 ar
    23    9   47 1
    24   10   48 1
    25   11   12 1
    26   11   35 1
    27   11   49 1
    28   12   13 1
    29   12   50 1
    30   12   51 1
    31   13   14 1
    32   13   52 1
    33   13   53 1
    34   14   15 1
    35   14   54 1
    36   14   55 1
    37   15   20 1
    38   15   16 1
    39   15   77 1
    40   16   17 1
    41   16   56 1
    42   16   57 1
    43   17   18 1
    44   17   58 1
    45   17   59 1
    46   18   19 1
    47   18   21 1
    48   18   60 1
    49   19   20 1
    50   19   61 1
    51   19   62 1
    52   20   63 1
    53   20   64 1
    54   21   22 1
    55   21   28 1
    56   21   34 1
    57   22   27 ar
    58   22   23 ar
    59   23   24 ar
    60   23   65 1
    61   24   25 ar
    62   24   66 1
    63   25   26 ar
    64   25   67 1
    65   26   27 ar
    66   26   68 1
    67   27   69 1
    68   28   33 ar
    69   28   29 ar
    70   29   30 ar
    71   29   70 1
    72   30   31 ar
    73   30   71 1
    74   31   32 ar
    75   31   72 1
    76   32   33 ar
    77   32   73 1
    78   33   74 1
    79   34   75 1
    80   35   76 1
@<TRIPOS>MOLECULE
CHEMBL393941
   74    78     0     0     0
SMALL
USER_CHARGES

@<TRIPOS>ATOM
      1 C1         -0.3882   -1.6139    1.3605 C.3       1 <0>        -0.1352
      2 C2          0.0770   -3.0680    1.2606 C.3       1 <0>         0.1095
      3 C3          1.1323   -3.3409    2.3342 C.3       1 <0>        -0.1764
      4 C4         -1.1173   -4.0011    1.4706 C.3       1 <0>         0.0865
      5 O1         -1.6815   -3.7692    2.7628 O.3       1 <0>        -0.5695
      6 N1          0.6569   -3.3064   -0.0679 N.3       1 <0>        -0.5222
      7 C5          1.0222   -4.7192   -0.2370 C.3       1 <0>         0.0297
      8 C6          1.4517   -4.9621   -1.6878 C.3       1 <0>         0.1364
      9 N2          2.5112   -4.0007   -2.0287 N.am      1 <0>        -0.5995
     10 C7          2.2704   -2.5751   -1.7587 C.3       1 <0>         0.1155
     11 C8          1.8088   -2.4261   -0.3051 C.3       1 <0>         0.0330
     12 C9          3.6719   -4.4150   -2.5743 C.2       1 <0>         0.6721
     13 O2          3.8537   -5.5967   -2.7909 O.2       1 <0>        -0.5620
     14 O3          4.6298   -3.5195   -2.8794 O.3       1 <0>        -0.3118
     15 C10         5.8345   -4.0288   -3.4551 C.3       1 <0>         0.0577
     16 C11         5.7173   -5.2405   -4.3819 C.3       1 <0>        -0.1853
     17 C12         6.3171   -5.4021   -2.9837 C.3       1 <0>        -0.1505
     18 C13         6.8993   -2.9827   -3.7905 C.3       1 <0>         0.2111
     19 H1          7.6798   -3.4382   -4.4000 H         1 <0>         0.1048
     20 C14         6.2569   -1.8245   -4.5604 C.3       1 <0>        -0.1261
     21 C15         7.2945   -0.7195   -4.7711 C.3       1 <0>        -0.1188
     22 C16         7.7657   -0.1942   -3.4131 C.3       1 <0>        -0.1333
     23 C17         8.4253   -1.3339   -2.6302 C.3       1 <0>         0.1936
     24 H2          9.3320   -1.6533   -3.1441 H         1 <0>         0.0888
     25 N3          7.4858   -2.4610   -2.5485 N.pl3     1 <0>        -0.9860
     26 S1          7.0920   -3.1274   -1.0845 S.o2      1 <0>         2.6816
     27 O4          6.0083   -4.0156   -1.3210 O.2       1 <0>        -0.9253
     28 O5          8.3108   -3.5537   -0.4913 O.2       1 <0>        -0.9603
     29 C18         6.4665   -1.8281   -0.0720 C.ar      1 <0>        -0.6653
     30 C19         7.2460   -1.3078    0.9442 C.ar      1 <0>         0.0008
     31 C20         6.7559   -0.2886    1.7388 C.ar      1 <0>        -0.1372
     32 C21         5.4848    0.2109    1.5170 C.ar      1 <0>         0.0201
     33 C22         4.7052   -0.3103    0.4998 C.ar      1 <0>        -0.1342
     34 C23         5.1985   -1.3256   -0.2977 C.ar      1 <0>        -0.0021
     35 Cl1         4.8683    1.4906    2.5149 Cl        1 <0>        -0.0533
     36 C24         8.7770   -0.8520   -1.2213 C.3       1 <0>        -0.2294
     37 C25         8.2552    0.5213   -0.7936 C.3       1 <0>        -0.1833
     38 C26         9.7420    0.3290   -1.0990 C.3       1 <0>        -0.1503
     39 H3          0.4626   -0.9492    1.2109 H         1 <0>         0.0545
     40 H4         -1.1400   -1.4195    0.5956 H         1 <0>         0.0629
     41 H5         -0.8185   -1.4370    2.3462 H         1 <0>         0.0696
     42 H6          0.7019   -3.1640    3.3199 H         1 <0>         0.0719
     43 H7          1.4637   -4.3768    2.2630 H         1 <0>         0.0542
     44 H8          1.9831   -2.6762    2.1846 H         1 <0>         0.0555
     45 H9         -1.8691   -3.8067    0.7057 H         1 <0>         0.0558
     46 H10        -0.7859   -5.0370    1.3993 H         1 <0>         0.0466
     47 H11        -2.4448   -4.3274    2.9647 H         1 <0>         0.3828
     48 H12         1.8469   -4.9643    0.4323 H         1 <0>         0.0467
     49 H13         0.1633   -5.3476   -0.0019 H         1 <0>         0.0926
     50 H14         1.8320   -5.9783   -1.7918 H         1 <0>         0.1006
     51 H15         0.5989   -4.8177   -2.3512 H         1 <0>         0.0782
     52 H16         3.1921   -2.0130   -1.9096 H         1 <0>         0.0889
     53 H17         1.4964   -2.2011   -2.4289 H         1 <0>         0.0797
     54 H18         1.5202   -1.3915   -0.1194 H         1 <0>         0.0926
     55 H19         2.6224   -2.7031    0.3651 H         1 <0>         0.0470
     56 H20         4.7213   -5.6491   -4.5525 H         1 <0>         0.1203
     57 H21         6.3987   -5.2925   -5.2310 H         1 <0>         0.0939
     58 H22         7.3932   -5.5603   -2.9129 H         1 <0>         0.0810
     59 H23         5.7157   -5.9170   -2.2344 H         1 <0>         0.1355
     60 H24         5.9045   -2.1820   -5.5279 H         1 <0>         0.0805
     61 H25         5.4162   -1.4302   -3.9895 H         1 <0>         0.0766
     62 H26         8.1460   -1.1209   -5.3206 H         1 <0>         0.0668
     63 H27         6.8468    0.0953   -5.3401 H         1 <0>         0.0708
     64 H28         8.4873    0.6087   -3.5641 H         1 <0>         0.0773
     65 H29         6.9109    0.1848   -2.8531 H         1 <0>         0.0748
     66 H30         8.2380   -1.6980    1.1175 H         1 <0>         0.1491
     67 H31         7.3648    0.1176    2.5329 H         1 <0>         0.1440
     68 H32         3.7128    0.0789    0.3264 H         1 <0>         0.1405
     69 H33         4.5918   -1.7293   -1.0948 H         1 <0>         0.1448
     70 H34         8.8334   -1.6290   -0.4591 H         1 <0>         0.1282
     71 H35         7.6614    1.0813   -1.5160 H         1 <0>         0.1059
     72 H36         7.9680    0.6478    0.2502 H         1 <0>         0.1046
     73 H37        10.4330    0.3290   -0.2560 H         1 <0>         0.1006
     74 H38        10.1264    0.7626   -2.0222 H         1 <0>         0.1004
@<TRIPOS>BOND
     1    1    2 1
     2    1   39 1
     3    1   40 1
     4    1   41 1
     5    2    3 1
     6    2    4 1
     7    2    6 1
     8    3   42 1
     9    3   43 1
    10    3   44 1
    11    4    5 1
    12    4   45 1
    13    4   46 1
    14    5   47 1
    15    6   11 1
    16    6    7 1
    17    7    8 1
    18    7   48 1
    19    7   49 1
    20    8    9 1
    21    8   50 1
    22    8   51 1
    23    9   10 1
    24    9   12 am
    25   10   11 1
    26   10   52 1
    27   10   53 1
    28   11   54 1
    29   11   55 1
    30   12   13 2
    31   12   14 1
    32   14   15 1
    33   15   17 1
    34   15   16 1
    35   15   18 1
    36   16   17 1
    37   16   56 1
    38   16   57 1
    39   17   58 1
    40   17   59 1
    41   18   19 1
    42   18   25 1
    43   18   20 1
    44   20   21 1
    45   20   60 1
    46   20   61 1
    47   21   22 1
    48   21   62 1
    49   21   63 1
    50   22   23 1
    51   22   64 1
    52   22   65 1
    53   23   24 1
    54   23   25 1
    55   23   36 1
    56   25   26 1
    57   26   27 2
    58   26   28 2
    59   26   29 1
    60   29   34 ar
    61   29   30 ar
    62   30   31 ar
    63   30   66 1
    64   31   32 ar
    65   31   67 1
    66   32   33 ar
    67   32   35 1
    68   33   34 ar
    69   33   68 1
    70   34   69 1
    71   36   38 1
    72   36   37 1
    73   36   70 1
    74   37   38 1
    75   37   71 1
    76   37   72 1
    77   38   73 1
    78   38   74 1
@<TRIPOS>MOLECULE
CHEMBL239629
   71    75     0     0     0
SMALL
USER_CHARGES

@<TRIPOS>ATOM
      1 C1         -4.9079   -2.1560   -0.0280 C.ar      1 <0>        -0.0043
      2 C2         -6.2267   -1.8530    0.2537 C.ar      1 <0>        -0.1313
      3 C3         -6.5530   -0.6225    0.7955 C.ar      1 <0>         0.0221
      4 C4         -5.5589    0.3040    1.0550 C.ar      1 <0>        -0.1302
      5 C5         -4.2405   -0.0001    0.7728 C.ar      1 <0>        -0.0118
      6 C6         -3.9150   -1.2297    0.2314 C.ar      1 <0>        -0.6603
      7 S1         -2.2340   -1.6168   -0.1275 S.o2      1 <0>         2.6687
      8 O1         -1.5024   -0.4051   -0.0019 O.2       1 <0>        -0.9530
      9 O2         -1.9158   -2.7802    0.6238 O.2       1 <0>        -0.9180
     10 N1         -2.1615   -2.0501   -1.7242 N.pl3     1 <0>        -0.9872
     11 C7         -2.6489   -1.1400   -2.7697 C.3       1 <0>         0.2077
     12 H1         -1.8123   -0.8084   -3.3846 H         1 <0>         0.1025
     13 C8         -3.6622   -1.8883   -3.6416 C.3       1 <0>        -0.1336
     14 C9         -3.0211   -3.1718   -4.1743 C.3       1 <0>        -0.1181
     15 C10        -2.6329   -4.0751   -3.0015 C.3       1 <0>        -0.1263
     16 C11        -1.6029   -3.3492   -2.1227 C.3       1 <0>         0.2110
     17 H2         -0.6827   -3.1941   -2.6860 H         1 <0>         0.1079
     18 C12        -1.3095   -4.1857   -0.8757 C.3       1 <0>         0.0504
     19 C13         0.0076   -4.9634   -0.8404 C.3       1 <0>        -0.1898
     20 C14        -0.1710   -3.7212    0.0348 C.3       1 <0>        -0.1327
     21 O3         -2.4477   -4.7864   -0.2546 O.3       1 <0>        -0.3134
     22 C15        -2.2228   -5.5292    0.8455 C.2       1 <0>         0.6695
     23 O4         -1.0911   -5.6637    1.2669 O.2       1 <0>        -0.5613
     24 N2         -3.2530   -6.1235    1.4795 N.am      1 <0>        -0.5992
     25 C16        -4.6298   -5.9786    0.9829 C.3       1 <0>         0.1209
     26 C17        -5.5221   -5.5309    2.1455 C.3       1 <0>         0.0376
     27 N3         -5.3619   -6.4638    3.2689 N.3       1 <0>        -0.5265
     28 C18        -3.9855   -6.4488    3.7819 C.3       1 <0>         0.0409
     29 C19        -3.0295   -6.9392    2.6829 C.3       1 <0>         0.1358
     30 C20        -6.3255   -6.1705    4.3383 C.3       1 <0>         0.0532
     31 C21        -7.7126   -6.6666    3.9250 C.3       1 <0>         0.0832
     32 O5         -7.6906   -8.0896    3.7960 O.3       1 <0>        -0.5588
     33 C22        -3.3114    0.0537   -2.1316 C.ar      1 <0>        -0.1155
     34 C23        -4.6900    0.1494   -2.1112 C.ar      1 <0>        -0.1280
     35 C24        -5.2998    1.2461   -1.5256 C.ar      1 <0>         0.1219
     36 C25        -4.5281    2.2465   -0.9602 C.ar      1 <0>        -0.1762
     37 C26        -3.1475    2.1494   -0.9809 C.ar      1 <0>         0.1218
     38 C27        -2.5400    1.0493   -1.5624 C.ar      1 <0>        -0.1035
     39 F1         -2.3931    3.1251   -0.4294 F         1 <0>        -0.1241
     40 F2         -6.6474    1.3398   -1.5065 F         1 <0>        -0.1247
     41 Cl1        -8.2093   -0.2411    1.1491 Cl        1 <0>        -0.0523
     42 H3         -4.6526   -3.1182   -0.4468 H         1 <0>         0.1401
     43 H4         -7.0024   -2.5766    0.0507 H         1 <0>         0.1413
     44 H5         -5.8130    1.2649    1.4776 H         1 <0>         0.1405
     45 H6         -3.4644    0.7233    0.9750 H         1 <0>         0.1428
     46 H7         -4.5393   -2.1401   -3.0454 H         1 <0>         0.0741
     47 H8         -3.9595   -1.2559   -4.4780 H         1 <0>         0.0835
     48 H9         -3.7318   -3.6938   -4.8150 H         1 <0>         0.0740
     49 H10        -2.1300   -2.9208   -4.7498 H         1 <0>         0.0697
     50 H11        -3.5197   -4.3063   -2.4114 H         1 <0>         0.0772
     51 H12        -2.1978   -4.9990   -3.3824 H         1 <0>         0.0823
     52 H13         0.0061   -5.9336   -0.3436 H         1 <0>         0.1201
     53 H14         0.6652   -4.8791   -1.7057 H         1 <0>         0.0943
     54 H15         0.3690   -2.8197   -0.2547 H         1 <0>         0.0779
     55 H16        -0.2900   -3.8741    1.1074 H         1 <0>         0.1388
     56 H17        -4.6567   -5.2298    0.1913 H         1 <0>         0.0879
     57 H18        -4.9828   -6.9353    0.5979 H         1 <0>         0.0781
     58 H19        -5.2327   -4.5285    2.4611 H         1 <0>         0.0395
     59 H20        -6.5634   -5.5248    1.8235 H         1 <0>         0.0857
     60 H21        -3.7175   -5.4336    4.0747 H         1 <0>         0.0401
     61 H22        -3.9124   -7.1084    4.6466 H         1 <0>         0.0913
     62 H23        -3.2316   -7.9864    2.4581 H         1 <0>         0.0799
     63 H24        -1.9978   -6.8257    3.0157 H         1 <0>         0.1004
     64 H25        -6.0170   -6.6752    5.2538 H         1 <0>         0.0837
     65 H26        -6.3608   -5.0948    4.5105 H         1 <0>         0.0504
     66 H27        -8.4413   -6.3819    4.6839 H         1 <0>         0.0477
     67 H28        -7.9888   -6.2194    2.9701 H         1 <0>         0.0435
     68 H29        -8.5388   -8.4741    3.5356 H         1 <0>         0.3753
     69 H30        -5.2919   -0.6312   -2.5524 H         1 <0>         0.1488
     70 H31        -5.0029    3.1024   -0.5036 H         1 <0>         0.1513
     71 H32        -1.4629    0.9711   -1.5748 H         1 <0>         0.1653
@<TRIPOS>BOND
     1    1    6 ar
     2    1    2 ar
     3    1   42 1
     4    2    3 ar
     5    2   43 1
     6    3    4 ar
     7    3   41 1
     8    4    5 ar
     9    4   44 1
    10    5    6 ar
    11    5   45 1
    12    6    7 1
    13    7    8 2
    14    7    9 2
    15    7   10 1
    16   10   16 1
    17   10   11 1
    18   11   12 1
    19   11   13 1
    20   11   33 1
    21   13   14 1
    22   13   46 1
    23   13   47 1
    24   14   15 1
    25   14   48 1
    26   14   49 1
    27   15   16 1
    28   15   50 1
    29   15   51 1
    30   16   17 1
    31   16   18 1
    32   18   20 1
    33   18   19 1
    34   18   21 1
    35   19   20 1
    36   19   52 1
    37   19   53 1
    38   20   54 1
    39   20   55 1
    40   21   22 1
    41   22   23 2
    42   22   24 am
    43   24   29 1
    44   24   25 1
    45   25   26 1
    46   25   56 1
    47   25   57 1
    48   26   27 1
    49   26   58 1
    50   26   59 1
    51   27   28 1
    52   27   30 1
    53   28   29 1
    54   28   60 1
    55   28   61 1
    56   29   62 1
    57   29   63 1
    58   30   31 1
    59   30   64 1
    60   30   65 1
    61   31   32 1
    62   31   66 1
    63   31   67 1
    64   32   68 1
    65   33   38 ar
    66   33   34 ar
    67   34   35 ar
    68   34   69 1
    69   35   36 ar
    70   35   40 1
    71   36   37 ar
    72   36   70 1
    73   37   38 ar
    74   37   39 1
    75   38   71 1
@<TRIPOS>MOLECULE
CHEMBL1078207
   59    63     0     0     0
SMALL
USER_CHARGES

@<TRIPOS>ATOM
      1 C1         12.7928  -11.0141   -0.3971 C.ar      1 <0>        -0.1084
      2 C2         11.4236  -11.0187   -0.5930 C.ar      1 <0>        -0.1190
      3 C3         10.7129   -9.8366   -0.5436 C.ar      1 <0>        -0.1008
      4 C4         11.3772   -8.6371   -0.2959 C.ar      1 <0>        -0.0652
      5 C5         12.7567   -8.6383   -0.0993 C.ar      1 <0>        -0.1014
      6 C6         13.4574   -9.8262   -0.1509 C.ar      1 <0>        -0.1193
      7 C7         10.6185   -7.3629   -0.2421 C.ar      1 <0>         0.0192
      8 C8          9.2383   -7.3624   -0.4334 C.ar      1 <0>        -0.1333
      9 C9          8.5376   -6.1744   -0.3818 C.ar      1 <0>        -0.0085
     10 C10         9.2029   -4.9859   -0.1413 C.ar      1 <0>        -0.6770
     11 C11        10.5730   -4.9806    0.0489 C.ar      1 <0>        -0.0135
     12 C12        11.2829   -6.1634    0.0056 C.ar      1 <0>        -0.1354
     13 S1          8.3020   -3.4730   -0.0774 S.o2      1 <0>         2.6884
     14 O1          9.1929   -2.4514   -0.5040 O.2       1 <0>        -0.9535
     15 O2          7.0569   -3.7144   -0.7182 O.2       1 <0>        -0.9471
     16 N1          7.9640   -3.1713    1.5154 N.pl3     1 <0>        -1.0617
     17 C13         7.1574   -4.0539    2.2375 C.ar      1 <0>         0.1164
     18 C14         5.7838   -4.0696    2.0294 C.ar      1 <0>        -0.1049
     19 C15         4.9869   -4.9436    2.7437 C.ar      1 <0>        -0.1074
     20 C16         5.5629   -5.8006    3.6646 C.ar      1 <0>        -0.0687
     21 C17         6.9208   -5.7874    3.8727 C.ar      1 <0>        -0.0765
     22 C18         7.7285   -4.9216    3.1609 C.ar      1 <0>        -0.1046
     23 C19         7.5381   -6.7320    4.8834 C.3       1 <0>        -0.0780
     24 C20         7.1129   -6.2819    6.2847 C.3       1 <0>         0.0788
     25 N2          5.8130   -6.8319    6.6328 N.3       1 <0>        -0.5600
     26 C21         4.6669   -6.3057    5.9096 C.3       1 <0>         0.0701
     27 C22         4.6895   -6.7594    4.4473 C.3       1 <0>        -0.0794
     28 C23         5.5900   -6.7779    8.0838 C.3       1 <0>         0.1435
     29 C24         4.3563   -7.5700    8.4323 C.2       1 <0>         0.0831
     30 C25         4.3297   -8.9033    8.8542 C.2       1 <0>        -0.2549
     31 C26         3.0383   -9.2471    9.0667 C.2       1 <0>         0.0570
     32 N3          2.2747   -8.1696    8.7890 N.pl3     1 <0>        -0.4763
     33 H1          1.3079   -8.1237    8.8525 H         1 <0>         0.4395
     34 N4          3.1254   -7.1276    8.3978 N.2       1 <0>        -0.2925
     35 H2         13.3444  -11.9419   -0.4322 H         1 <0>         0.1259
     36 H3         10.9097  -11.9489   -0.7853 H         1 <0>         0.1275
     37 H4          9.6438   -9.8412   -0.6970 H         1 <0>         0.1277
     38 H5         13.2766   -7.7114    0.0927 H         1 <0>         0.1275
     39 H6         14.5266   -9.8284    0.0016 H         1 <0>         0.1274
     40 H7          8.7179   -8.2897   -0.6220 H         1 <0>         0.1358
     41 H8          7.4678   -6.1729   -0.5300 H         1 <0>         0.1427
     42 H9         11.0876   -4.0497    0.2360 H         1 <0>         0.1407
     43 H10        12.3520   -6.1587    0.1586 H         1 <0>         0.1360
     44 H11         8.3261   -2.3817    1.9470 H         1 <0>         0.4250
     45 H12         5.3390   -3.3985    1.3097 H         1 <0>         0.1342
     46 H13         3.9188   -4.9574    2.5842 H         1 <0>         0.1303
     47 H14         8.7962   -4.9165    3.3235 H         1 <0>         0.1281
     48 H15         7.1854   -7.7470    4.7008 H         1 <0>         0.0897
     49 H16         8.6245   -6.6994    4.8010 H         1 <0>         0.0785
     50 H17         7.8520   -6.6220    7.0101 H         1 <0>         0.0805
     51 H18         7.0603   -5.1935    6.3110 H         1 <0>         0.0353
     52 H19         3.7511   -6.6617    6.3814 H         1 <0>         0.0920
     53 H20         4.6886   -5.2165    5.9472 H         1 <0>         0.0325
     54 H21         3.6772   -6.7474    4.0434 H         1 <0>         0.0769
     55 H22         5.0998   -7.7671    4.3818 H         1 <0>         0.0878
     56 H23         6.4516   -7.2015    8.5998 H         1 <0>         0.0957
     57 H24         5.4553   -5.7412    8.3923 H         1 <0>         0.0487
     58 H25         5.1881   -9.5451    8.9865 H         1 <0>         0.1482
     59 H26         2.6824  -10.2112    9.3986 H         1 <0>         0.1767
@<TRIPOS>BOND
     1    1    6 ar
     2    1    2 ar
     3    1   35 1
     4    2    3 ar
     5    2   36 1
     6    3    4 ar
     7    3   37 1
     8    4    5 ar
     9    4    7 1
    10    5    6 ar
    11    5   38 1
    12    6   39 1
    13    7   12 ar
    14    7    8 ar
    15    8    9 ar
    16    8   40 1
    17    9   10 ar
    18    9   41 1
    19   10   11 ar
    20   10   13 1
    21   11   12 ar
    22   11   42 1
    23   12   43 1
    24   13   14 2
    25   13   15 2
    26   13   16 1
    27   16   17 1
    28   16   44 1
    29   17   22 ar
    30   17   18 ar
    31   18   19 ar
    32   18   45 1
    33   19   20 ar
    34   19   46 1
    35   20   27 1
    36   20   21 ar
    37   21   22 ar
    38   21   23 1
    39   22   47 1
    40   23   24 1
    41   23   48 1
    42   23   49 1
    43   24   25 1
    44   24   50 1
    45   24   51 1
    46   25   26 1
    47   25   28 1
    48   26   27 1
    49   26   52 1
    50   26   53 1
    51   27   54 1
    52   27   55 1
    53   28   29 1
    54   28   56 1
    55   28   57 1
    56   29   34 2
    57   29   30 1
    58   30   31 2
    59   30   58 1
    60   31   32 1
    61   31   59 1
    62   32   33 1
    63   32   34 1
@<TRIPOS>MOLECULE
CHEMBL1078207
   60    64     0     0     0
SMALL
USER_CHARGES

@<TRIPOS>ATOM
      1 C1         12.8026  -11.0079   -0.3976 C.ar      1 <0>        -0.1038
      2 C2         11.4333  -11.0144   -0.5929 C.ar      1 <0>        -0.1191
      3 C3         10.7210   -9.8332   -0.5435 C.ar      1 <0>        -0.1008
      4 C4         11.3838   -8.6328   -0.2962 C.ar      1 <0>        -0.0726
      5 C5         12.7634   -8.6322   -0.1002 C.ar      1 <0>        -0.0997
      6 C6         13.4657   -9.8191   -0.1518 C.ar      1 <0>        -0.1180
      7 C7         10.6234   -7.3597   -0.2424 C.ar      1 <0>         0.0261
      8 C8          9.2432   -7.3610   -0.4332 C.ar      1 <0>        -0.1359
      9 C9          8.5408   -6.1740   -0.3815 C.ar      1 <0>        -0.0118
     10 C10         9.2047   -4.9845   -0.1414 C.ar      1 <0>        -0.6824
     11 C11        10.5748   -4.9773    0.0482 C.ar      1 <0>        -0.0117
     12 C12        11.2863   -6.1593    0.0049 C.ar      1 <0>        -0.1353
     13 S1          8.3018   -3.4728   -0.0775 S.o2      1 <0>         2.6858
     14 O1          9.1912   -2.4502   -0.5046 O.2       1 <0>        -0.9417
     15 O2          7.0567   -3.7160   -0.7177 O.2       1 <0>        -0.9433
     16 N1          7.9640   -3.1713    1.5154 N.pl3     1 <0>        -1.0690
     17 C13         7.1574   -4.0539    2.2375 C.ar      1 <0>         0.1437
     18 C14         5.7838   -4.0695    2.0294 C.ar      1 <0>        -0.0932
     19 C15         4.9866   -4.9434    2.7436 C.ar      1 <0>        -0.0914
     20 C16         5.5628   -5.7999    3.6644 C.ar      1 <0>        -0.0980
     21 C17         6.9206   -5.7864    3.8731 C.ar      1 <0>        -0.0984
     22 C18         7.7287   -4.9217    3.1609 C.ar      1 <0>        -0.0957
     23 C19         7.5362   -6.7318    4.8850 C.3       1 <0>        -0.0964
     24 C20         7.1031   -6.2833    6.2843 C.3       1 <0>        -0.0097
     25 N2          5.8117   -6.8462    6.6359 N.4       1 <0>        -0.3745
     26 C21         4.6749   -6.3072    5.9113 C.3       1 <0>        -0.0202
     27 C22         4.6903   -6.7600    4.4480 C.3       1 <0>        -0.0941
     28 C23         5.5891   -6.6261    8.0712 C.3       1 <0>         0.0630
     29 C24         4.3122   -7.3072    8.4916 C.2       1 <0>         0.0003
     30 C25         4.2076   -8.5445    9.0292 C.2       1 <0>        -0.2055
     31 C26         2.8534   -8.7940    9.2748 C.2       1 <0>         0.0555
     32 N3          2.1695   -7.7441    8.8981 N.2       1 <0>        -0.2437
     33 H1          2.8382   -5.9131    8.0601 H         1 <0>         0.4427
     34 N4          3.0688   -6.7899    8.4049 N.pl3     1 <0>        -0.4684
     35 H2         13.3555  -11.9350   -0.4326 H         1 <0>         0.1285
     36 H3         10.9206  -11.9454   -0.7848 H         1 <0>         0.1289
     37 H4          9.6519   -9.8394   -0.6965 H         1 <0>         0.1266
     38 H5         13.2821   -7.7045    0.0915 H         1 <0>         0.1280
     39 H6         14.5349   -9.8198    0.0003 H         1 <0>         0.1297
     40 H7          8.7240   -8.2891   -0.6214 H         1 <0>         0.1363
     41 H8          7.4710   -6.1739   -0.5293 H         1 <0>         0.1414
     42 H9         11.0883   -4.0457    0.2350 H         1 <0>         0.1423
     43 H10        12.3554   -6.1531    0.1575 H         1 <0>         0.1383
     44 H11         8.3262   -2.3818    1.9470 H         1 <0>         0.4302
     45 H12         5.3392   -3.3987    1.3092 H         1 <0>         0.1454
     46 H13         3.9185   -4.9575    2.5838 H         1 <0>         0.1398
     47 H14         8.7963   -4.9168    3.3235 H         1 <0>         0.1383
     48 H15         7.1866   -7.7474    4.6997 H         1 <0>         0.0989
     49 H16         8.6229   -6.6965    4.8075 H         1 <0>         0.1211
     50 H17         7.8462   -6.6113    7.0111 H         1 <0>         0.1419
     51 H18         7.0374   -5.1956    6.3071 H         1 <0>         0.1326
     52 H19         3.7543   -6.6515    6.3826 H         1 <0>         0.1301
     53 H20         4.7098   -5.2185    5.9493 H         1 <0>         0.1326
     54 H21         3.6764   -6.7455    4.0480 H         1 <0>         0.1200
     55 H22         5.0990   -7.7681    4.3791 H         1 <0>         0.0987
     56 H23         6.4245   -7.0397    8.6361 H         1 <0>         0.1593
     57 H24         5.5120   -5.5567    8.2671 H         1 <0>         0.1418
     58 H25         5.0253   -9.2202    9.2324 H         1 <0>         0.1641
     59 H26         2.4431   -9.6975    9.7011 H         1 <0>         0.1997
     60 H27         5.8463   -7.8416    6.4749 H         1 <0>         0.4226
@<TRIPOS>BOND
     1    1    6 ar
     2    1    2 ar
     3    1   35 1
     4    2    3 ar
     5    2   36 1
     6    3    4 ar
     7    3   37 1
     8    4    5 ar
     9    4    7 1
    10    5    6 ar
    11    5   38 1
    12    6   39 1
    13    7   12 ar
    14    7    8 ar
    15    8    9 ar
    16    8   40 1
    17    9   10 ar
    18    9   41 1
    19   10   11 ar
    20   10   13 1
    21   11   12 ar
    22   11   42 1
    23   12   43 1
    24   13   14 2
    25   13   15 2
    26   13   16 1
    27   16   17 1
    28   16   44 1
    29   17   22 ar
    30   17   18 ar
    31   18   19 ar
    32   18   45 1
    33   19   20 ar
    34   19   46 1
    35   20   27 1
    36   20   21 ar
    37   21   22 ar
    38   21   23 1
    39   22   47 1
    40   23   24 1
    41   23   48 1
    42   23   49 1
    43   24   25 1
    44   24   50 1
    45   24   51 1
    46   25   26 1
    47   25   28 1
    48   25   60 1
    49   26   27 1
    50   26   52 1
    51   26   53 1
    52   27   54 1
    53   27   55 1
    54   28   56 1
    55   28   57 1
    56   28   29 1
    57   29   30 2
    58   29   34 1
    59   30   31 1
    60   30   58 1
    61   31   32 2
    62   31   59 1
    63   32   34 1
    64   33   34 1
@<TRIPOS>MOLECULE
CHEMBL1078207
   59    63     0     0     0
SMALL
USER_CHARGES

@<TRIPOS>ATOM
      1 C1         12.7928  -11.0141   -0.3971 C.ar      1 <0>        -0.1080
      2 C2         11.4236  -11.0187   -0.5930 C.ar      1 <0>        -0.1189
      3 C3         10.7129   -9.8366   -0.5436 C.ar      1 <0>        -0.1007
      4 C4         11.3772   -8.6371   -0.2959 C.ar      1 <0>        -0.0659
      5 C5         12.7567   -8.6383   -0.0993 C.ar      1 <0>        -0.1013
      6 C6         13.4574   -9.8262   -0.1509 C.ar      1 <0>        -0.1193
      7 C7         10.6185   -7.3629   -0.2421 C.ar      1 <0>         0.0200
      8 C8          9.2383   -7.3624   -0.4334 C.ar      1 <0>        -0.1334
      9 C9          8.5376   -6.1744   -0.3818 C.ar      1 <0>        -0.0087
     10 C10         9.2029   -4.9859   -0.1413 C.ar      1 <0>        -0.6776
     11 C11        10.5730   -4.9806    0.0489 C.ar      1 <0>        -0.0134
     12 C12        11.2829   -6.1634    0.0056 C.ar      1 <0>        -0.1354
     13 S1          8.3020   -3.4730   -0.0774 S.o2      1 <0>         2.6883
     14 O1          9.1929   -2.4514   -0.5040 O.2       1 <0>        -0.9527
     15 O2          7.0569   -3.7144   -0.7182 O.2       1 <0>        -0.9468
     16 N1          7.9640   -3.1713    1.5154 N.pl3     1 <0>        -1.0624
     17 C13         7.1574   -4.0539    2.2375 C.ar      1 <0>         0.1188
     18 C14         5.7838   -4.0696    2.0294 C.ar      1 <0>        -0.1047
     19 C15         4.9869   -4.9436    2.7437 C.ar      1 <0>        -0.1066
     20 C16         5.5629   -5.8006    3.6646 C.ar      1 <0>        -0.0716
     21 C17         6.9208   -5.7874    3.8727 C.ar      1 <0>        -0.0764
     22 C18         7.7285   -4.9216    3.1609 C.ar      1 <0>        -0.1045
     23 C19         7.5381   -6.7320    4.8834 C.3       1 <0>        -0.0787
     24 C20         7.1129   -6.2819    6.2847 C.3       1 <0>         0.0787
     25 N2          5.8130   -6.8319    6.6328 N.3       1 <0>        -0.5598
     26 C21         4.6669   -6.3057    5.9096 C.3       1 <0>         0.0693
     27 C22         4.6895   -6.7594    4.4473 C.3       1 <0>        -0.0790
     28 C23         5.5900   -6.7779    8.0838 C.3       1 <0>         0.1256
     29 C24         4.3563   -7.5700    8.4323 C.2       1 <0>         0.0894
     30 C25         4.3247   -8.8612    8.8357 C.2       1 <0>        -0.2486
     31 C26         2.9885   -9.2108    9.0562 C.2       1 <0>         0.0494
     32 N3          2.2445   -8.1668    8.7945 N.2       1 <0>        -0.2906
     33 H1          2.8038   -6.2228    8.1542 H         1 <0>         0.4345
     34 N4          3.0854   -7.1169    8.4035 N.pl3     1 <0>        -0.4775
     35 H2         13.3444  -11.9419   -0.4322 H         1 <0>         0.1262
     36 H3         10.9097  -11.9489   -0.7853 H         1 <0>         0.1278
     37 H4          9.6438   -9.8412   -0.6970 H         1 <0>         0.1277
     38 H5         13.2766   -7.7114    0.0927 H         1 <0>         0.1275
     39 H6         14.5266   -9.8284    0.0016 H         1 <0>         0.1275
     40 H7          8.7179   -8.2897   -0.6220 H         1 <0>         0.1360
     41 H8          7.4678   -6.1729   -0.5300 H         1 <0>         0.1426
     42 H9         11.0876   -4.0497    0.2360 H         1 <0>         0.1408
     43 H10        12.3520   -6.1587    0.1586 H         1 <0>         0.1362
     44 H11         8.3261   -2.3817    1.9470 H         1 <0>         0.4253
     45 H12         5.3390   -3.3985    1.3097 H         1 <0>         0.1350
     46 H13         3.9188   -4.9574    2.5842 H         1 <0>         0.1308
     47 H14         8.7962   -4.9165    3.3235 H         1 <0>         0.1288
     48 H15         7.1854   -7.7470    4.7008 H         1 <0>         0.0908
     49 H16         8.6245   -6.6994    4.8010 H         1 <0>         0.0800
     50 H17         7.8520   -6.6220    7.0101 H         1 <0>         0.0826
     51 H18         7.0603   -5.1935    6.3110 H         1 <0>         0.0364
     52 H19         3.7511   -6.6617    6.3814 H         1 <0>         0.0772
     53 H20         4.6886   -5.2165    5.9472 H         1 <0>         0.0350
     54 H21         3.6772   -6.7474    4.0434 H         1 <0>         0.0795
     55 H22         5.0998   -7.7671    4.3818 H         1 <0>         0.0907
     56 H23         6.4516   -7.2015    8.5998 H         1 <0>         0.1047
     57 H24         5.4553   -5.7412    8.3923 H         1 <0>         0.0466
     58 H25         5.1802   -9.5078    8.9643 H         1 <0>         0.1487
     59 H26         2.6323  -10.1759    9.3850 H         1 <0>         0.1844
@<TRIPOS>BOND
     1    1    6 ar
     2    1    2 ar
     3    1   35 1
     4    2    3 ar
     5    2   36 1
     6    3    4 ar
     7    3   37 1
     8    4    5 ar
     9    4    7 1
    10    5    6 ar
    11    5   38 1
    12    6   39 1
    13    7   12 ar
    14    7    8 ar
    15    8    9 ar
    16    8   40 1
    17    9   10 ar
    18    9   41 1
    19   10   11 ar
    20   10   13 1
    21   11   12 ar
    22   11   42 1
    23   12   43 1
    24   13   14 2
    25   13   15 2
    26   13   16 1
    27   16   17 1
    28   16   44 1
    29   17   22 ar
    30   17   18 ar
    31   18   19 ar
    32   18   45 1
    33   19   20 ar
    34   19   46 1
    35   20   27 1
    36   20   21 ar
    37   21   22 ar
    38   21   23 1
    39   22   47 1
    40   23   24 1
    41   23   48 1
    42   23   49 1
    43   24   25 1
    44   24   50 1
    45   24   51 1
    46   25   26 1
    47   25   28 1
    48   26   27 1
    49   26   52 1
    50   26   53 1
    51   27   54 1
    52   27   55 1
    53   28   56 1
    54   28   57 1
    55   28   29 1
    56   29   30 2
    57   29   34 1
    58   30   31 1
    59   30   58 1
    60   31   32 2
    61   31   59 1
    62   32   34 1
    63   33   34 1
@<TRIPOS>MOLECULE
CHEMBL1078207
   60    64     0     0     0
SMALL
USER_CHARGES

@<TRIPOS>ATOM
      1 C1         12.8026  -11.0079   -0.3976 C.ar      1 <0>        -0.1042
      2 C2         11.4333  -11.0144   -0.5929 C.ar      1 <0>        -0.1192
      3 C3         10.7210   -9.8332   -0.5435 C.ar      1 <0>        -0.1010
      4 C4         11.3838   -8.6328   -0.2962 C.ar      1 <0>        -0.0719
      5 C5         12.7634   -8.6322   -0.1002 C.ar      1 <0>        -0.0998
      6 C6         13.4657   -9.8191   -0.1518 C.ar      1 <0>        -0.1180
      7 C7         10.6234   -7.3597   -0.2424 C.ar      1 <0>         0.0254
      8 C8          9.2432   -7.3610   -0.4332 C.ar      1 <0>        -0.1358
      9 C9          8.5408   -6.1740   -0.3815 C.ar      1 <0>        -0.0116
     10 C10         9.2047   -4.9845   -0.1414 C.ar      1 <0>        -0.6818
     11 C11        10.5748   -4.9773    0.0482 C.ar      1 <0>        -0.0118
     12 C12        11.2863   -6.1593    0.0049 C.ar      1 <0>        -0.1352
     13 S1          8.3018   -3.4728   -0.0775 S.o2      1 <0>         2.6860
     14 O1          9.1912   -2.4502   -0.5046 O.2       1 <0>        -0.9425
     15 O2          7.0567   -3.7160   -0.7177 O.2       1 <0>        -0.9437
     16 N1          7.9640   -3.1713    1.5154 N.pl3     1 <0>        -1.0683
     17 C13         7.1574   -4.0539    2.2375 C.ar      1 <0>         0.1414
     18 C14         5.7838   -4.0695    2.0294 C.ar      1 <0>        -0.0934
     19 C15         4.9866   -4.9434    2.7436 C.ar      1 <0>        -0.0920
     20 C16         5.5628   -5.7999    3.6644 C.ar      1 <0>        -0.0950
     21 C17         6.9206   -5.7864    3.8731 C.ar      1 <0>        -0.0985
     22 C18         7.7287   -4.9217    3.1609 C.ar      1 <0>        -0.0958
     23 C19         7.5362   -6.7318    4.8850 C.3       1 <0>        -0.0958
     24 C20         7.1031   -6.2833    6.2843 C.3       1 <0>        -0.0090
     25 N2          5.8117   -6.8462    6.6359 N.4       1 <0>        -0.3719
     26 C21         4.6749   -6.3072    5.9113 C.3       1 <0>        -0.0168
     27 C22         4.6903   -6.7600    4.4480 C.3       1 <0>        -0.0949
     28 C23         5.5891   -6.6261    8.0712 C.3       1 <0>         0.0813
     29 C24         4.3122   -7.3072    8.4916 C.2       1 <0>         0.0058
     30 C25         4.2102   -8.5846    9.0522 C.2       1 <0>        -0.2556
     31 C26         2.9011   -8.8318    9.2895 C.2       1 <0>         0.0839
     32 N3          2.1996   -7.7492    8.8932 N.pl3     1 <0>        -0.4471
     33 H1          1.2368   -7.6432    8.9437 H         1 <0>         0.4535
     34 N4          3.1081   -6.8034    8.4007 N.2       1 <0>        -0.2628
     35 H2         13.3555  -11.9350   -0.4326 H         1 <0>         0.1282
     36 H3         10.9206  -11.9454   -0.7848 H         1 <0>         0.1287
     37 H4          9.6519   -9.8394   -0.6965 H         1 <0>         0.1266
     38 H5         13.2821   -7.7045    0.0915 H         1 <0>         0.1280
     39 H6         14.5349   -9.8198    0.0003 H         1 <0>         0.1296
     40 H7          8.7240   -8.2891   -0.6214 H         1 <0>         0.1361
     41 H8          7.4710   -6.1739   -0.5293 H         1 <0>         0.1415
     42 H9         11.0883   -4.0457    0.2350 H         1 <0>         0.1423
     43 H10        12.3554   -6.1531    0.1575 H         1 <0>         0.1381
     44 H11         8.3262   -2.3818    1.9470 H         1 <0>         0.4299
     45 H12         5.3392   -3.3987    1.3092 H         1 <0>         0.1446
     46 H13         3.9185   -4.9575    2.5838 H         1 <0>         0.1392
     47 H14         8.7963   -4.9168    3.3235 H         1 <0>         0.1377
     48 H15         7.1866   -7.7474    4.6997 H         1 <0>         0.0980
     49 H16         8.6229   -6.6965    4.8075 H         1 <0>         0.1199
     50 H17         7.8462   -6.6113    7.0111 H         1 <0>         0.1403
     51 H18         7.0374   -5.1956    6.3071 H         1 <0>         0.1325
     52 H19         3.7543   -6.6515    6.3826 H         1 <0>         0.1421
     53 H20         4.7098   -5.2185    5.9493 H         1 <0>         0.1311
     54 H21         3.6764   -6.7455    4.0480 H         1 <0>         0.1176
     55 H22         5.0990   -7.7681    4.3791 H         1 <0>         0.0958
     56 H23         6.4245   -7.0397    8.6361 H         1 <0>         0.1518
     57 H24         5.5120   -5.5567    8.2671 H         1 <0>         0.1430
     58 H25         5.0311   -9.2553    9.2585 H         1 <0>         0.1616
     59 H26         2.4911   -9.7340    9.7188 H         1 <0>         0.1927
     60 H27         5.8463   -7.8416    6.4749 H         1 <0>         0.4192
@<TRIPOS>BOND
     1    1    6 ar
     2    1    2 ar
     3    1   35 1
     4    2    3 ar
     5    2   36 1
     6    3    4 ar
     7    3   37 1
     8    4    5 ar
     9    4    7 1
    10    5    6 ar
    11    5   38 1
    12    6   39 1
    13    7   12 ar
    14    7    8 ar
    15    8    9 ar
    16    8   40 1
    17    9   10 ar
    18    9   41 1
    19   10   11 ar
    20   10   13 1
    21   11   12 ar
    22   11   42 1
    23   12   43 1
    24   13   14 2
    25   13   15 2
    26   13   16 1
    27   16   17 1
    28   16   44 1
    29   17   22 ar
    30   17   18 ar
    31   18   19 ar
    32   18   45 1
    33   19   20 ar
    34   19   46 1
    35   20   27 1
    36   20   21 ar
    37   21   22 ar
    38   21   23 1
    39   22   47 1
    40   23   24 1
    41   23   48 1
    42   23   49 1
    43   24   25 1
    44   24   50 1
    45   24   51 1
    46   25   26 1
    47   25   28 1
    48   25   60 1
    49   26   27 1
    50   26   52 1
    51   26   53 1
    52   27   54 1
    53   27   55 1
    54   28   56 1
    55   28   57 1
    56   28   29 1
    57   29   34 2
    58   29   30 1
    59   30   58 1
    60   30   31 2
    61   31   59 1
    62   31   32 1
    63   32   34 1
    64   32   33 1
@<TRIPOS>MOLECULE
CHEMBL252632
   66    68     0     0     0
SMALL
USER_CHARGES

@<TRIPOS>ATOM
      1 C1         -0.0187    1.5258    0.0104 C.3       1 <0>        -0.1906
      2 C2          0.0021   -0.0041    0.0020 C.3       1 <0>         0.1375
      3 C3          0.7421   -0.5109    1.2415 C.3       1 <0>        -0.1860
      4 C4         -1.4333   -0.5336    0.0129 C.3       1 <0>        -0.1418
      5 O1          0.6709   -0.4649   -1.1737 O.3       1 <0>        -0.3551
      6 C5          1.9522   -0.0848   -1.3367 C.2       1 <0>         0.6546
      7 O2          2.4879    0.6189   -0.5034 O.2       1 <0>        -0.5492
      8 N1          2.6407   -0.4850   -2.4240 N.am      1 <0>        -0.6962
      9 C6          4.0349   -0.0714   -2.6014 C.3       1 <0>         0.1403
     10 H1          4.5261   -0.0235   -1.6295 H         1 <0>         0.1400
     11 C7          4.0776    1.3076   -3.2628 C.3       1 <0>        -0.1147
     12 C8          3.4738    2.3292   -2.3340 C.ar      1 <0>        -0.0140
     13 C9          2.1397    2.6710   -2.4557 C.ar      1 <0>        -0.1127
     14 C10         1.5859    3.6080   -1.6038 C.ar      1 <0>        -0.0757
     15 C11         2.3659    4.2031   -0.6297 C.ar      1 <0>        -0.1191
     16 C12         3.6994    3.8607   -0.5074 C.ar      1 <0>        -0.0619
     17 C13         4.2523    2.9203   -1.3568 C.ar      1 <0>        -0.1670
     18 C14         5.7049    2.5431   -1.2201 C.3       1 <0>         0.5063
     19 F1          6.2782    3.2683   -0.1701 F         1 <0>        -0.1736
     20 F2          5.8079    1.1739   -0.9520 F         1 <0>        -0.1759
     21 F3          6.3771    2.8369   -2.4114 F         1 <0>        -0.1768
     22 C15         4.7478   -1.0704   -3.4759 C.2       1 <0>         0.5207
     23 O3          4.1502   -2.0330   -3.9085 O.2       1 <0>        -0.5141
     24 N2          6.0496   -0.8940   -3.7774 N.am      1 <0>        -0.7236
     25 C16         6.7426   -1.8651   -4.6275 C.3       1 <0>         0.1965
     26 C17         8.1768   -1.4397   -4.8100 C.2       1 <0>         0.2751
     27 N3          8.6092   -0.6649   -5.7615 N.2       1 <0>        -0.4423
     28 C18         9.9474   -0.4865   -5.6272 C.ar      1 <0>         0.0010
     29 C19        10.9068    0.2308   -6.3486 C.ar      1 <0>        -0.0100
     30 C20        12.2175    0.1866   -5.9134 C.ar      1 <0>        -0.1782
     31 C21        12.5400   -0.5575   -4.7892 C.ar      1 <0>         0.1514
     32 N4         11.6216   -1.2266   -4.1237 N.ar      1 <0>        -0.4787
     33 C22        10.3517   -1.2184   -4.4965 C.ar      1 <0>         0.2524
     34 N5          9.2078   -1.8053   -3.9999 N.pl3     1 <0>        -0.4762
     35 C23         9.1183   -2.6667   -2.8183 C.3       1 <0>         0.0706
     36 C24         9.3257   -4.1247   -3.2331 C.3       1 <0>         0.2442
     37 C25         9.2323   -5.0243   -1.9991 C.3       1 <0>         0.4320
     38 F4          7.9704   -4.8814   -1.4123 F         1 <0>        -0.1534
     39 F5          9.4219   -6.3574   -2.3784 F         1 <0>        -0.1523
     40 F6         10.2192   -4.6566   -1.0782 F         1 <0>        -0.1514
     41 F7          8.3388   -4.4924   -4.1540 F         1 <0>        -0.1542
     42 F8         10.5876   -4.2676   -3.8199 F         1 <0>        -0.1457
     43 H2          1.0039    1.9031    0.0027 H         1 <0>         0.0972
     44 H3         -0.5459    1.8868   -0.8726 H         1 <0>         0.0577
     45 H4         -0.5289    1.8773    0.9072 H         1 <0>         0.0673
     46 H5          0.2319   -0.1594    2.1383 H         1 <0>         0.0689
     47 H6          0.7568   -1.6008    1.2356 H         1 <0>         0.0583
     48 H7          1.7647   -0.1336    1.2338 H         1 <0>         0.0884
     49 H8         -1.9605   -0.1726   -0.8702 H         1 <0>         0.0663
     50 H9         -1.4185   -1.6235    0.0069 H         1 <0>         0.0664
     51 H10        -1.9435   -0.1821    0.9097 H         1 <0>         0.0803
     52 H11         2.2131   -1.0467   -3.0892 H         1 <0>         0.4159
     53 H12         5.1123    1.5766   -3.4756 H         1 <0>         0.0965
     54 H13         3.5102    1.2820   -4.1931 H         1 <0>         0.0989
     55 H14         1.5304    2.2062   -3.2167 H         1 <0>         0.1265
     56 H15         0.5439    3.8755   -1.6994 H         1 <0>         0.1282
     57 H16         1.9334    4.9358    0.0355 H         1 <0>         0.1317
     58 H17         4.3088    4.3258    0.2533 H         1 <0>         0.1349
     59 H18         6.5276   -0.1241   -3.4314 H         1 <0>         0.4071
     60 H19         6.7122   -2.8475   -4.1563 H         1 <0>         0.0985
     61 H20         6.2514   -1.9130   -5.5994 H         1 <0>         0.1202
     62 H21        10.6310    0.8032   -7.2219 H         1 <0>         0.1476
     63 H22        12.9856    0.7279   -6.4458 H         1 <0>         0.1507
     64 H23        13.5656   -0.5894   -4.4525 H         1 <0>         0.1721
     65 H24         9.8872   -2.3802   -2.1008 H         1 <0>         0.1479
     66 H25         8.1351   -2.5553   -2.3611 H         1 <0>         0.1401
@<TRIPOS>BOND
     1    1    2 1
     2    1   43 1
     3    1   44 1
     4    1   45 1
     5    2    3 1
     6    2    4 1
     7    2    5 1
     8    3   46 1
     9    3   47 1
    10    3   48 1
    11    4   49 1
    12    4   50 1
    13    4   51 1
    14    5    6 1
    15    6    7 2
    16    6    8 am
    17    8    9 1
    18    8   52 1
    19    9   10 1
    20    9   11 1
    21    9   22 1
    22   11   12 1
    23   11   53 1
    24   11   54 1
    25   12   17 ar
    26   12   13 ar
    27   13   14 ar
    28   13   55 1
    29   14   15 ar
    30   14   56 1
    31   15   16 ar
    32   15   57 1
    33   16   17 ar
    34   16   58 1
    35   17   18 1
    36   18   19 1
    37   18   20 1
    38   18   21 1
    39   22   23 2
    40   22   24 am
    41   24   25 1
    42   24   59 1
    43   25   26 1
    44   25   60 1
    45   25   61 1
    46   26   34 1
    47   26   27 2
    48   27   28 1
    49   28   33 ar
    50   28   29 ar
    51   29   30 ar
    52   29   62 1
    53   30   31 ar
    54   30   63 1
    55   31   32 ar
    56   31   64 1
    57   32   33 ar
    58   33   34 1
    59   34   35 1
    60   35   36 1
    61   35   65 1
    62   35   66 1
    63   36   37 1
    64   36   41 1
    65   36   42 1
    66   37   38 1
    67   37   39 1
    68   37   40 1
@<TRIPOS>MOLECULE
CHEMBL464245
   58    60     0     0     0
SMALL
USER_CHARGES

@<TRIPOS>ATOM
      1 C1          0.8917    2.3906   -0.9727 C.ar      1 <0>        -0.0394
      2 C2          2.1839    2.8770   -1.0529 C.ar      1 <0>        -0.1618
      3 C3          3.2592    2.0197   -0.9140 C.ar      1 <0>         0.1578
      4 C4          3.0374    0.6564   -0.6916 C.ar      1 <0>        -0.2046
      5 C5          1.7270    0.1729   -0.6118 C.ar      1 <0>         0.1666
      6 C6          0.6634    1.0443   -0.7531 C.ar      1 <0>        -0.1624
      7 F1          1.5018   -1.1418   -0.3978 F         1 <0>        -0.1127
      8 C7          4.1790   -0.2664   -0.5426 C.2       1 <0>         0.5869
      9 O1          4.6506   -0.4772    0.5581 O.2       1 <0>        -0.5054
     10 N1          4.6991   -0.8755   -1.6265 N.am      1 <0>        -0.5962
     11 C8          4.1309   -0.6214   -2.9527 C.3       1 <0>         0.0690
     12 C9          4.8470    0.5684   -3.5949 C.3       1 <0>         0.0408
     13 F2          4.3044    0.8111   -4.8614 F         1 <0>        -0.2040
     14 C10         5.8326   -1.7917   -1.4785 C.3       1 <0>         0.0818
     15 C11         5.3134   -3.2121   -1.2465 C.3       1 <0>         0.0638
     16 C12         6.4972   -4.1690   -1.0919 C.3       1 <0>         0.0977
     17 N2          7.3344   -3.7331    0.0285 N.am      1 <0>        -0.7299
     18 C13         8.5014   -4.3583    0.2809 C.2       1 <0>         0.6151
     19 O2          8.8597   -5.2848   -0.4219 O.2       1 <0>        -0.5548
     20 C14         9.3400   -3.9217    1.4034 C.2       1 <0>        -0.3723
     21 C15         9.0563   -2.8706    2.3073 C.2       1 <0>         0.1230
     22 N3         10.0379   -2.7906    3.1609 N.2       1 <0>        -0.2896
     23 N4         10.9919   -3.7685    2.8595 N.pl3     1 <0>        -0.3487
     24 C16        10.5638   -4.4672    1.7850 C.2       1 <0>         0.4483
     25 N5         11.2170   -5.5207    1.1784 N.pl3     1 <0>        -0.8245
     26 C17        12.1875   -3.9897    3.5577 C.ar      1 <0>         0.1442
     27 C18        12.6814   -5.2795    3.6990 C.ar      1 <0>        -0.1189
     28 C19        13.8592   -5.4954    4.3871 C.ar      1 <0>        -0.1249
     29 C20        14.5475   -4.4264    4.9359 C.ar      1 <0>         0.1004
     30 C21        14.0561   -3.1392    4.7965 C.ar      1 <0>        -0.1279
     31 C22        12.8819   -2.9186    4.1038 C.ar      1 <0>        -0.0771
     32 F3         15.6995   -4.6395    5.6087 F         1 <0>        -0.1312
     33 C23         4.4605   -3.6447   -2.4407 C.3       1 <0>         0.4738
     34 F4          5.1893   -3.4700   -3.6220 F         1 <0>        -0.1701
     35 F5          4.1135   -4.9929   -2.3019 F         1 <0>        -0.1663
     36 F6          3.2987   -2.8669   -2.4902 F         1 <0>        -0.1622
     37 O3          4.5194   -3.2409   -0.0587 O.3       1 <0>        -0.5178
     38 F7          4.5207    2.4968   -0.9932 F         1 <0>        -0.1211
     39 H1          0.0561    3.0667   -1.0777 H         1 <0>         0.1528
     40 H2          2.3533    3.9297   -1.2250 H         1 <0>         0.1528
     41 H3         -0.3488    0.6728   -0.6918 H         1 <0>         0.1531
     42 H4          4.2604   -1.5043   -3.5787 H         1 <0>         0.1019
     43 H5          3.0686   -0.3972   -2.8560 H         1 <0>         0.0968
     44 H6          4.7176    1.4513   -2.9689 H         1 <0>         0.0769
     45 H7          5.9093    0.3442   -3.6916 H         1 <0>         0.0822
     46 H8          6.4383   -1.7698   -2.3845 H         1 <0>         0.1120
     47 H9          6.4403   -1.4835   -0.6277 H         1 <0>         0.1166
     48 H10         6.1276   -5.1761   -0.8990 H         1 <0>         0.0977
     49 H11         7.0873   -4.1679   -2.0083 H         1 <0>         0.0970
     50 H12         7.0487   -2.9946    0.5888 H         1 <0>         0.3990
     51 H13         8.1777   -2.2427    2.2923 H         1 <0>         0.1942
     52 H14        10.8231   -5.9555    0.4060 H         1 <0>         0.4333
     53 H15        12.0701   -5.8262    1.5244 H         1 <0>         0.4041
     54 H16        12.1448   -6.1135    3.2714 H         1 <0>         0.1400
     55 H17        14.2436   -6.4986    4.4975 H         1 <0>         0.1496
     56 H18        14.5939   -2.3068    5.2258 H         1 <0>         0.1493
     57 H19        12.5017   -1.9141    3.9907 H         1 <0>         0.1483
     58 H20         4.9967   -2.9776    0.7400 H         1 <0>         0.3975
@<TRIPOS>BOND
     1    1    6 ar
     2    1    2 ar
     3    1   39 1
     4    2    3 ar
     5    2   40 1
     6    3    4 ar
     7    3   38 1
     8    4    5 ar
     9    4    8 1
    10    5    6 ar
    11    5    7 1
    12    6   41 1
    13    8    9 2
    14    8   10 am
    15   10   11 1
    16   10   14 1
    17   11   12 1
    18   11   42 1
    19   11   43 1
    20   12   13 1
    21   12   44 1
    22   12   45 1
    23   14   15 1
    24   14   46 1
    25   14   47 1
    26   15   16 1
    27   15   33 1
    28   15   37 1
    29   16   17 1
    30   16   48 1
    31   16   49 1
    32   17   18 am
    33   17   50 1
    34   18   19 2
    35   18   20 1
    36   20   24 2
    37   20   21 1
    38   21   22 2
    39   21   51 1
    40   22   23 1
    41   23   24 1
    42   23   26 1
    43   24   25 1
    44   25   52 1
    45   25   53 1
    46   26   31 ar
    47   26   27 ar
    48   27   28 ar
    49   27   54 1
    50   28   29 ar
    51   28   55 1
    52   29   30 ar
    53   29   32 1
    54   30   31 ar
    55   30   56 1
    56   31   57 1
    57   33   34 1
    58   33   35 1
    59   33   36 1
    60   37   58 1
@<TRIPOS>MOLECULE
CHEMBL464245
   58    60     0     0     0
SMALL
USER_CHARGES

@<TRIPOS>ATOM
      1 C1         -0.0167    1.3788    0.0096 C.ar      1 <0>        -0.0403
      2 C2          1.1667    2.0945    0.0022 C.ar      1 <0>        -0.1618
      3 C3          2.3797    1.4319   -0.0129 C.ar      1 <0>         0.1571
      4 C4          2.4080    0.0332   -0.0207 C.ar      1 <0>        -0.2010
      5 C5          1.2061   -0.6828   -0.0130 C.ar      1 <0>         0.1652
      6 C6          0.0021   -0.0041    0.0020 C.ar      1 <0>        -0.1624
      7 F1          1.2222   -2.0337   -0.0208 F         1 <0>        -0.1103
      8 C7          3.6980   -0.6827   -0.0373 C.2       1 <0>         0.5794
      9 O1          4.2399   -0.9833    1.0088 O.2       1 <0>        -0.4995
     10 N1          4.2756   -1.0035   -1.2120 N.am      1 <0>        -0.6029
     11 C8          3.6226   -0.6413   -2.4724 C.3       1 <0>         0.0825
     12 C9          4.0952    0.7461   -2.9114 C.3       1 <0>         0.0402
     13 F2          3.4716    1.0920   -4.1150 F         1 <0>        -0.2055
     14 C10         5.5565   -1.7143   -1.2284 C.3       1 <0>         0.0885
     15 C11         5.3024   -3.2231   -1.2340 C.3       1 <0>         0.0647
     16 C12         6.6359   -3.9652   -1.1254 C.3       1 <0>         0.0969
     17 N2          6.3926   -5.4099   -1.1307 N.am      1 <0>        -0.7289
     18 C13         7.4283   -6.2680   -1.0438 C.2       1 <0>         0.6122
     19 O2          8.5654   -5.8428   -0.9610 O.2       1 <0>        -0.5634
     20 C14         7.1846   -7.7152   -1.0491 C.2       1 <0>        -0.3695
     21 C15         5.9270   -8.3569   -1.1454 C.2       1 <0>         0.1254
     22 N3          6.1232   -9.6450   -1.1171 N.2       1 <0>        -0.2923
     23 N4          7.4940   -9.9003   -1.0031 N.pl3     1 <0>        -0.3495
     24 C16         8.1478   -8.7183   -0.9664 C.2       1 <0>         0.4462
     25 N5          9.5122   -8.5387   -0.8636 N.pl3     1 <0>        -0.8251
     26 C17         8.0891  -11.1683   -0.9425 C.ar      1 <0>         0.1457
     27 C18         9.3308  -11.3820   -1.5259 C.ar      1 <0>        -0.1195
     28 C19         9.9154  -12.6317   -1.4652 C.ar      1 <0>        -0.1250
     29 C20         9.2640  -13.6714   -0.8230 C.ar      1 <0>         0.0993
     30 C21         8.0253  -13.4604   -0.2409 C.ar      1 <0>        -0.1277
     31 C22         7.4402  -12.2105   -0.2941 C.ar      1 <0>        -0.0776
     32 F3          9.8374  -14.8933   -0.7647 F         1 <0>        -0.1316
     33 C23         4.4135   -3.5949   -0.0454 C.3       1 <0>         0.4712
     34 F4          3.1942   -2.9163   -0.1447 F         1 <0>        -0.1596
     35 F5          4.1812   -4.9745   -0.0505 F         1 <0>        -0.1753
     36 F6          5.0525   -3.2340    1.1456 F         1 <0>        -0.1535
     37 O3          4.6497   -3.5918   -2.4506 O.3       1 <0>        -0.5277
     38 F7          3.5346    2.1329   -0.0206 F         1 <0>        -0.1212
     39 H1         -0.9609    1.9028    0.0260 H         1 <0>         0.1526
     40 H2          1.1431    3.1743    0.0078 H         1 <0>         0.1526
     41 H3         -0.9267   -0.5552    0.0079 H         1 <0>         0.1528
     42 H4          3.8807   -1.3724   -3.2385 H         1 <0>         0.1040
     43 H5          2.5418   -0.6291   -2.3313 H         1 <0>         0.0919
     44 H6          3.8370    1.4771   -2.1452 H         1 <0>         0.0760
     45 H7          5.1760    0.7339   -3.0525 H         1 <0>         0.0816
     46 H8          6.1146   -1.4366   -2.1225 H         1 <0>         0.1144
     47 H9          6.1323   -1.4461   -0.3427 H         1 <0>         0.1179
     48 H10         7.2691   -3.7003   -1.9721 H         1 <0>         0.0965
     49 H11         7.1337   -3.6840   -0.1974 H         1 <0>         0.0943
     50 H12         5.4862   -5.7488   -1.1967 H         1 <0>         0.4085
     51 H13         4.9696   -7.8640   -1.2277 H         1 <0>         0.1937
     52 H14         9.8833   -7.6427   -0.8429 H         1 <0>         0.4329
     53 H15        10.1002   -9.3084   -0.8121 H         1 <0>         0.4034
     54 H16         9.8389  -10.5715   -2.0271 H         1 <0>         0.1399
     55 H17        10.8810  -12.7984   -1.9192 H         1 <0>         0.1493
     56 H18         7.5185  -14.2726    0.2589 H         1 <0>         0.1491
     57 H19         6.4765  -12.0450    0.1644 H         1 <0>         0.1483
     58 H20         5.1571   -3.3849   -3.2474 H         1 <0>         0.3972
@<TRIPOS>BOND
     1    1    6 ar
     2    1    2 ar
     3    1   39 1
     4    2    3 ar
     5    2   40 1
     6    3    4 ar
     7    3   38 1
     8    4    5 ar
     9    4    8 1
    10    5    6 ar
    11    5    7 1
    12    6   41 1
    13    8    9 2
    14    8   10 am
    15   10   11 1
    16   10   14 1
    17   11   12 1
    18   11   42 1
    19   11   43 1
    20   12   13 1
    21   12   44 1
    22   12   45 1
    23   14   15 1
    24   14   46 1
    25   14   47 1
    26   15   16 1
    27   15   33 1
    28   15   37 1
    29   16   17 1
    30   16   48 1
    31   16   49 1
    32   17   18 am
    33   17   50 1
    34   18   19 2
    35   18   20 1
    36   20   24 2
    37   20   21 1
    38   21   22 2
    39   21   51 1
    40   22   23 1
    41   23   24 1
    42   23   26 1
    43   24   25 1
    44   25   52 1
    45   25   53 1
    46   26   31 ar
    47   26   27 ar
    48   27   28 ar
    49   27   54 1
    50   28   29 ar
    51   28   55 1
    52   29   30 ar
    53   29   32 1
    54   30   31 ar
    55   30   56 1
    56   31   57 1
    57   33   34 1
    58   33   35 1
    59   33   36 1
    60   37   58 1
@<TRIPOS>MOLECULE
CHEMBL151170
   33    34     0     0     0
SMALL
USER_CHARGES

@<TRIPOS>ATOM
      1 C1         -0.0187    1.5258    0.0104 C.3       1 <0>        -0.1550
      2 C2          0.0021   -0.0041    0.0020 C.3       1 <0>        -0.1213
      3 C3         -1.4333   -0.5336    0.0129 C.3       1 <0>        -0.1222
      4 C4         -1.4126   -2.0635    0.0045 C.3       1 <0>         0.0542
      5 O1         -2.7532   -2.5581    0.0146 O.3       1 <0>        -0.3046
      6 C5         -2.9130   -3.9078    0.0089 C.ar      1 <0>         0.1719
      7 C6         -1.7999   -4.7370   -0.0005 C.ar      1 <0>        -0.2044
      8 C7         -1.9588   -6.1071   -0.0068 C.ar      1 <0>        -0.0359
      9 C8         -3.2386   -6.6587   -0.0032 C.ar      1 <0>        -0.1121
     10 C9         -4.3543   -5.8236    0.0066 C.ar      1 <0>        -0.0570
     11 C10        -4.1889   -4.4542    0.0181 C.ar      1 <0>        -0.1447
     12 C11        -3.4131   -8.1323   -0.0105 C.2       1 <0>         0.1021
     13 C12        -2.4179   -9.0570   -0.0147 C.2       1 <0>         0.0241
     14 N1         -3.0220  -10.2839   -0.0204 N.pl3     1 <0>        -0.5048
     15 H1         -2.5742  -11.1444   -0.0243 H         1 <0>         0.4683
     16 C13        -4.3571  -10.0773   -0.0194 C.cat     1 <0>         0.3063
     17 N2         -4.5879   -8.7942   -0.0081 N.pl3     1 <0>        -0.4795
     18 H2          1.0039    1.9031    0.0027 H         1 <0>         0.0606
     19 H3         -0.5459    1.8868   -0.8726 H         1 <0>         0.0576
     20 H4         -0.5289    1.8773    0.9072 H         1 <0>         0.0576
     21 H5          0.5123   -0.3556   -0.8948 H         1 <0>         0.0659
     22 H6          0.5293   -0.3651    0.8851 H         1 <0>         0.0659
     23 H7         -1.9435   -0.1821    0.9097 H         1 <0>         0.0774
     24 H8         -1.9605   -0.1726   -0.8702 H         1 <0>         0.0774
     25 H9         -0.9024   -2.4150   -0.8923 H         1 <0>         0.0692
     26 H10        -0.8854   -2.4246    0.8875 H         1 <0>         0.0692
     27 H11        -0.8083   -4.3089   -0.0032 H         1 <0>         0.1444
     28 H12        -1.0923   -6.7518   -0.0147 H         1 <0>         0.1369
     29 H13        -5.3473   -6.2482    0.0094 H         1 <0>         0.1289
     30 H14        -5.0530   -3.8065    0.0302 H         1 <0>         0.1464
     31 H15        -1.3558   -8.8613   -0.0141 H         1 <0>         0.2262
     32 H16        -5.1114  -10.8502   -0.0235 H         1 <0>         0.2675
     33 H17        -5.4656   -8.3812   -0.0016 H         1 <0>         0.4637
@<TRIPOS>BOND
     1    1    2 1
     2    1   18 1
     3    1   19 1
     4    1   20 1
     5    2    3 1
     6    2   21 1
     7    2   22 1
     8    3    4 1
     9    3   23 1
    10    3   24 1
    11    4    5 1
    12    4   25 1
    13    4   26 1
    14    5    6 1
    15    6   11 ar
    16    6    7 ar
    17    7    8 ar
    18    7   27 1
    19    8    9 ar
    20    8   28 1
    21    9   10 ar
    22    9   12 1
    23   10   11 ar
    24   10   29 1
    25   11   30 1
    26   12   17 1
    27   12   13 2
    28   13   14 1
    29   13   31 1
    30   14   15 1
    31   14   16 1
    32   16   17 2
    33   16   32 1
    34   17   33 1
@<TRIPOS>MOLECULE
CHEMBL151170
   32    33     0     0     0
SMALL
USER_CHARGES

@<TRIPOS>ATOM
      1 C1         -0.0187    1.5258    0.0104 C.3       1 <0>        -0.1531
      2 C2          0.0021   -0.0041    0.0020 C.3       1 <0>        -0.1219
      3 C3          0.7182   -0.4975   -1.2568 C.3       1 <0>        -0.1203
      4 C4          0.7390   -2.0273   -1.2652 C.3       1 <0>         0.0571
      5 O1          1.4078   -2.4882   -2.4409 O.3       1 <0>        -0.3141
      6 C5          1.5136   -3.8332   -2.6034 C.ar      1 <0>         0.1339
      7 C6          0.9781   -4.6899   -1.6510 C.ar      1 <0>        -0.2002
      8 C7          1.0835   -6.0552   -1.8123 C.ar      1 <0>        -0.0590
      9 C8          1.7294   -6.5757   -2.9345 C.ar      1 <0>        -0.0511
     10 C9          2.2664   -5.7113   -3.8896 C.ar      1 <0>        -0.0798
     11 C10         2.1520   -4.3472   -3.7240 C.ar      1 <0>        -0.1442
     12 C11         1.8450   -8.0397   -3.1111 C.2       1 <0>         0.0191
     13 C12         1.3744   -9.0007   -2.2708 C.2       1 <0>        -0.0062
     14 N1          1.6854  -10.1926   -2.7940 N.2       1 <0>        -0.4919
     15 H1          2.8736   -8.2882   -4.9282 H         1 <0>         0.4202
     16 C13         2.3264  -10.0221   -3.9187 C.2       1 <0>         0.1929
     17 N2          2.4444   -8.6978   -4.1608 N.pl3     1 <0>        -0.5674
     18 H2          1.0039    1.9031    0.0027 H         1 <0>         0.0562
     19 H3         -0.5459    1.8868   -0.8726 H         1 <0>         0.0562
     20 H4         -0.5289    1.8773    0.9072 H         1 <0>         0.0581
     21 H5          0.5293   -0.3651    0.8851 H         1 <0>         0.0653
     22 H6         -1.0205   -0.3814    0.0098 H         1 <0>         0.0653
     23 H7          0.1910   -0.1364   -2.1398 H         1 <0>         0.0745
     24 H8          1.7408   -0.1202   -1.2645 H         1 <0>         0.0745
     25 H9          1.2661   -2.3884   -0.3821 H         1 <0>         0.0641
     26 H10        -0.2836   -2.4046   -1.2575 H         1 <0>         0.0640
     27 H11         0.4787   -4.2864   -0.7826 H         1 <0>         0.1337
     28 H12         0.6670   -6.7210   -1.0709 H         1 <0>         0.1329
     29 H13         2.7669   -6.1103   -4.7594 H         1 <0>         0.1229
     30 H14         2.5631   -3.6777   -4.4651 H         1 <0>         0.1345
     31 H15         0.8444   -8.8317   -1.3451 H         1 <0>         0.1722
     32 H16         2.6982  -10.8117   -4.5548 H         1 <0>         0.2115
@<TRIPOS>BOND
     1    1    2 1
     2    1   18 1
     3    1   19 1
     4    1   20 1
     5    2    3 1
     6    2   21 1
     7    2   22 1
     8    3    4 1
     9    3   23 1
    10    3   24 1
    11    4    5 1
    12    4   25 1
    13    4   26 1
    14    5    6 1
    15    6   11 ar
    16    6    7 ar
    17    7    8 ar
    18    7   27 1
    19    8    9 ar
    20    8   28 1
    21    9   10 ar
    22    9   12 1
    23   10   11 ar
    24   10   29 1
    25   11   30 1
    26   12   13 2
    27   12   17 1
    28   13   14 1
    29   13   31 1
    30   14   16 2
    31   15   17 1
    32   16   32 1
    33   16   17 1
@<TRIPOS>MOLECULE
CHEMBL151170
   32    33     0     0     0
SMALL
USER_CHARGES

@<TRIPOS>ATOM
      1 C1         -0.0187    1.5258    0.0104 C.3       1 <0>        -0.1528
      2 C2          0.0021   -0.0041    0.0020 C.3       1 <0>        -0.1220
      3 C3         -1.4333   -0.5336    0.0129 C.3       1 <0>        -0.1199
      4 C4         -1.4126   -2.0635    0.0045 C.3       1 <0>         0.0578
      5 O1         -2.7532   -2.5581    0.0146 O.3       1 <0>        -0.3159
      6 C5         -2.9130   -3.9078    0.0089 C.ar      1 <0>         0.1305
      7 C6         -1.7999   -4.7370   -0.0005 C.ar      1 <0>        -0.2081
      8 C7         -1.9588   -6.1071   -0.0068 C.ar      1 <0>        -0.0529
      9 C8         -3.2386   -6.6587   -0.0032 C.ar      1 <0>        -0.0426
     10 C9         -4.3543   -5.8236    0.0066 C.ar      1 <0>        -0.0711
     11 C10        -4.1889   -4.4542    0.0181 C.ar      1 <0>        -0.1507
     12 C11        -3.4131   -8.1323   -0.0105 C.2       1 <0>         0.0442
     13 C12        -4.5967   -8.7991   -0.0136 C.2       1 <0>        -0.0423
     14 N1         -4.2957  -10.1331   -0.0207 N.pl3     1 <0>        -0.5686
     15 H1         -4.9320  -10.8653   -0.0243 H         1 <0>         0.4231
     16 C13        -2.9493  -10.2439   -0.0217 C.2       1 <0>         0.1907
     17 N2         -2.4253   -9.0502   -0.0211 N.2       1 <0>        -0.4864
     18 H2          1.0039    1.9031    0.0027 H         1 <0>         0.0575
     19 H3         -0.5459    1.8868   -0.8726 H         1 <0>         0.0561
     20 H4         -0.5289    1.8773    0.9072 H         1 <0>         0.0561
     21 H5          0.5123   -0.3556   -0.8948 H         1 <0>         0.0651
     22 H6          0.5293   -0.3651    0.8851 H         1 <0>         0.0650
     23 H7         -1.9435   -0.1821    0.9097 H         1 <0>         0.0740
     24 H8         -1.9605   -0.1726   -0.8702 H         1 <0>         0.0740
     25 H9         -0.9024   -2.4150   -0.8923 H         1 <0>         0.0627
     26 H10        -0.8854   -2.4246    0.8875 H         1 <0>         0.0627
     27 H11        -0.8083   -4.3089   -0.0032 H         1 <0>         0.1289
     28 H12        -1.0923   -6.7518   -0.0147 H         1 <0>         0.1331
     29 H13        -5.3473   -6.2482    0.0094 H         1 <0>         0.1290
     30 H14        -5.0530   -3.8065    0.0302 H         1 <0>         0.1328
     31 H15        -5.5837   -8.3608   -0.0106 H         1 <0>         0.1795
     32 H16        -2.3963  -11.1716   -0.0263 H         1 <0>         0.2105
@<TRIPOS>BOND
     1    1    2 1
     2    1   18 1
     3    1   19 1
     4    1   20 1
     5    2    3 1
     6    2   21 1
     7    2   22 1
     8    3    4 1
     9    3   23 1
    10    3   24 1
    11    4    5 1
    12    4   25 1
    13    4   26 1
    14    5    6 1
    15    6   11 ar
    16    6    7 ar
    17    7    8 ar
    18    7   27 1
    19    8    9 ar
    20    8   28 1
    21    9   10 ar
    22    9   12 1
    23   10   11 ar
    24   10   29 1
    25   11   30 1
    26   12   17 1
    27   12   13 2
    28   13   14 1
    29   13   31 1
    30   14   15 1
    31   14   16 1
    32   16   17 2
    33   16   32 1
@<TRIPOS>MOLECULE
CHEMBL391914
   73    76     0     0     0
SMALL
USER_CHARGES

@<TRIPOS>ATOM
      1 C1         -1.6107   -0.2705   -0.8681 C.3       1 <0>        -0.1538
      2 C2         -0.1638   -0.0803   -0.4086 C.3       1 <0>        -0.1025
      3 C3          0.0621   -0.8478    0.8956 C.3       1 <0>        -0.1604
      4 C4          0.7866   -0.6109   -1.4838 C.3       1 <0>        -0.1419
      5 C5          2.2304   -0.2918   -1.0907 C.3       1 <0>         0.0862
      6 H1          2.4340   -0.6935   -0.0981 H         1 <0>         0.1498
      7 C6          3.1722   -0.9158   -2.0880 C.ar      1 <0>        -0.1458
      8 C7          3.7311   -0.1440   -3.0879 C.ar      1 <0>        -0.1262
      9 C8          4.5949   -0.7158   -4.0036 C.ar      1 <0>        -0.1027
     10 C9          4.9027   -2.0617   -3.9217 C.ar      1 <0>        -0.0873
     11 C10         4.3478   -2.8390   -2.9244 C.ar      1 <0>        -0.1088
     12 C11         3.4836   -2.2665   -1.9994 C.ar      1 <0>         0.2032
     13 N1          2.9247   -3.0486   -0.9862 N.pl3     1 <0>        -0.6808
     14 C12         1.6494   -3.7475   -1.1981 C.3       1 <0>         0.1258
     15 C13         1.8546   -5.2399   -0.9101 C.3       1 <0>         0.0951
     16 N2          2.5315   -5.3791    0.3869 N.am      1 <0>        -0.6106
     17 C14         3.8069   -4.6803    0.5988 C.3       1 <0>         0.0740
     18 C15         3.6045   -3.1924    0.3089 C.3       1 <0>         0.1278
     19 C16         1.9922   -6.1339    1.3646 C.2       1 <0>         0.5044
     20 O1          0.9390   -6.7056    1.1782 O.2       1 <0>        -0.4946
     21 C17         2.6979   -6.2674    2.6894 C.3       1 <0>         0.1539
     22 H2          3.7711   -6.3582    2.5220 H         1 <0>         0.1081
     23 C18         2.4180   -5.0291    3.5434 C.3       1 <0>        -0.0936
     24 C19         3.2205   -5.1051    4.8167 C.ar      1 <0>        -0.0680
     25 C20         2.6498   -5.6254    5.9633 C.ar      1 <0>        -0.0785
     26 C21         3.3852   -5.6954    7.1313 C.ar      1 <0>        -0.0969
     27 C22         4.6935   -5.2451    7.1536 C.ar      1 <0>        -0.0235
     28 C23         5.2652   -4.7249    6.0066 C.ar      1 <0>        -0.0975
     29 C24         4.5300   -4.6595    4.8364 C.ar      1 <0>        -0.0250
     30 Cl1         5.2486   -4.0123    3.3947 Cl        1 <0>        -0.0610
     31 Cl2         5.6169   -5.3326    8.6210 Cl        1 <0>        -0.0462
     32 N3          2.2094   -7.4608    3.3848 N.am      1 <0>        -0.6117
     33 C25         3.0569   -8.5888    3.7888 C.3       1 <0>         0.1036
     34 C26         2.2324   -9.3693    4.8364 C.3       1 <0>        -0.1303
     35 C27         0.7852   -8.9924    4.4430 C.3       1 <0>        -0.1564
     36 C28         0.9285   -7.6607    3.7399 C.2       1 <0>         0.5260
     37 O2          0.0194   -6.8871    3.5254 O.2       1 <0>        -0.5060
     38 N4          2.4243    1.1643   -1.0788 N.4       1 <0>        -0.6383
     39 H3         -1.7739    0.2828   -1.7930 H         1 <0>         0.0607
     40 H4         -1.8011   -1.3298   -1.0400 H         1 <0>         0.0652
     41 H5         -2.2880    0.1002   -0.0987 H         1 <0>         0.0677
     42 H6          0.0289    0.9798   -0.2443 H         1 <0>         0.0622
     43 H7         -0.1306   -1.9080    0.7314 H         1 <0>         0.0686
     44 H8          1.0930   -0.7124    1.2230 H         1 <0>         0.0503
     45 H9         -0.6150   -0.4698    1.6616 H         1 <0>         0.0700
     46 H10         0.6652   -1.6902   -1.5756 H         1 <0>         0.1174
     47 H11         0.5566   -0.1369   -2.4380 H         1 <0>         0.0903
     48 H12         3.4929    0.9073   -3.1547 H         1 <0>         0.1169
     49 H13         5.0300   -0.1102   -4.7849 H         1 <0>         0.1356
     50 H14         5.5775   -2.5053   -4.6389 H         1 <0>         0.1361
     51 H15         4.5883   -3.8900   -2.8612 H         1 <0>         0.1347
     52 H16         0.8949   -3.3449   -0.5223 H         1 <0>         0.0653
     53 H17         1.3269   -3.6152   -2.2309 H         1 <0>         0.0852
     54 H18         0.8877   -5.7418   -0.8739 H         1 <0>         0.1029
     55 H19         2.4701   -5.6823   -1.6934 H         1 <0>         0.0721
     56 H20         4.1293   -4.8126    1.6316 H         1 <0>         0.0992
     57 H21         4.5614   -5.0829   -0.0771 H         1 <0>         0.0756
     58 H22         4.5729   -2.6936    0.2711 H         1 <0>         0.0828
     59 H23         2.9924   -2.7494    1.0945 H         1 <0>         0.0608
     60 H24         2.7001   -4.1341    2.9890 H         1 <0>         0.0900
     61 H25         1.3560   -4.9871    3.7853 H         1 <0>         0.1049
     62 H26         1.6288   -5.9770    5.9464 H         1 <0>         0.1396
     63 H27         2.9386   -6.1013    8.0269 H         1 <0>         0.1446
     64 H28         6.2862   -4.3733    6.0235 H         1 <0>         0.1473
     65 H29         3.2739   -9.2241    2.9301 H         1 <0>         0.0727
     66 H30         3.9832   -8.2245    4.2331 H         1 <0>         0.0782
     67 H31         2.3957  -10.4427    4.7404 H         1 <0>         0.0943
     68 H32         2.4631   -9.0299    5.8462 H         1 <0>         0.0842
     69 H33         0.3657   -9.7403    3.7701 H         1 <0>         0.1065
     70 H34         0.1636   -8.8863    5.3321 H         1 <0>         0.1033
     71 H35         2.1327    1.5497   -1.9646 H         1 <0>         0.4324
     72 H36         1.8736    1.5709   -0.3375 H         1 <0>         0.4359
     73 H37         3.3997    1.3725   -0.9262 H         1 <0>         0.4368
@<TRIPOS>BOND
     1    1    2 1
     2    1   39 1
     3    1   40 1
     4    1   41 1
     5    2    3 1
     6    2    4 1
     7    2   42 1
     8    3   43 1
     9    3   44 1
    10    3   45 1
    11    4    5 1
    12    4   46 1
    13    4   47 1
    14    5    6 1
    15    5    7 1
    16    5   38 1
    17    7   12 ar
    18    7    8 ar
    19    8    9 ar
    20    8   48 1
    21    9   10 ar
    22    9   49 1
    23   10   11 ar
    24   10   50 1
    25   11   12 ar
    26   11   51 1
    27   12   13 1
    28   13   18 1
    29   13   14 1
    30   14   15 1
    31   14   52 1
    32   14   53 1
    33   15   16 1
    34   15   54 1
    35   15   55 1
    36   16   17 1
    37   16   19 am
    38   17   18 1
    39   17   56 1
    40   17   57 1
    41   18   58 1
    42   18   59 1
    43   19   20 2
    44   19   21 1
    45   21   22 1
    46   21   23 1
    47   21   32 1
    48   23   24 1
    49   23   60 1
    50   23   61 1
    51   24   29 ar
    52   24   25 ar
    53   25   26 ar
    54   25   62 1
    55   26   27 ar
    56   26   63 1
    57   27   28 ar
    58   27   31 1
    59   28   29 ar
    60   28   64 1
    61   29   30 1
    62   32   36 am
    63   32   33 1
    64   33   34 1
    65   33   65 1
    66   33   66 1
    67   34   35 1
    68   34   67 1
    69   34   68 1
    70   35   36 1
    71   35   69 1
    72   35   70 1
    73   36   37 2
    74   38   71 1
    75   38   72 1
    76   38   73 1
@<TRIPOS>MOLECULE
CHEMBL1471
   58    61     0     0     0
SMALL
USER_CHARGES

@<TRIPOS>ATOM
      1 C1         -0.0187    1.5258    0.0104 C.3       1 <0>        -0.1746
      2 C2          0.0021   -0.0041    0.0020 C.3       1 <0>         0.1333
      3 H1          0.5123   -0.3556   -0.8948 H         1 <0>         0.0775
      4 C3         -1.4117   -0.5257    0.0127 C.ar      1 <0>        -0.0848
      5 C4         -2.1228   -0.5709    1.1973 C.ar      1 <0>        -0.0086
      6 C5         -3.4197   -1.0494    1.2071 C.ar      1 <0>        -0.1851
      7 C6         -4.0056   -1.4822    0.0323 C.ar      1 <0>        -0.0222
      8 C7         -3.2949   -1.4361   -1.1525 C.ar      1 <0>        -0.1832
      9 C8         -1.9995   -0.9536   -1.1630 C.ar      1 <0>        -0.0287
     10 C9         -3.9335   -1.9084   -2.4332 C.3       1 <0>         0.5121
     11 F1         -5.2369   -2.3439   -2.1713 F         1 <0>        -0.1729
     12 F2         -3.9698   -0.8544   -3.3524 F         1 <0>        -0.1720
     13 F3         -3.1866   -2.9652   -2.9647 F         1 <0>        -0.1719
     14 C10        -4.1945   -1.0997    2.4987 C.3       1 <0>         0.5114
     15 F4         -4.8857    0.1038    2.6750 F         1 <0>        -0.1721
     16 F5         -5.1069   -2.1593    2.4542 F         1 <0>        -0.1734
     17 F6         -3.3102   -1.2902    3.5659 F         1 <0>        -0.1710
     18 O1          0.6932   -0.4774    1.1597 O.3       1 <0>        -0.3630
     19 C11         2.0985   -0.6511    0.9672 C.3       1 <0>         0.2609
     20 H2          2.2727   -1.2341    0.0628 H         1 <0>         0.1094
     21 C12         2.6925   -1.3862    2.1716 C.3       1 <0>         0.1150
     22 H3          3.7539   -1.5661    2.0010 H         1 <0>         0.0806
     23 N1          2.5220   -0.5605    3.3760 N.3       1 <0>        -0.5064
     24 C13         3.1767    0.7453    3.2093 C.3       1 <0>         0.0146
     25 C14         2.5778    1.4590    1.9945 C.3       1 <0>         0.0633
     26 O2          2.7246    0.6283    0.8386 O.3       1 <0>        -0.3889
     27 C15         3.0290   -1.2554    4.5668 C.3       1 <0>         0.1270
     28 C16         2.6205   -0.4967    5.8032 C.2       1 <0>         0.2794
     29 N2          2.9244   -0.8506    7.0951 N.am      1 <0>        -0.6550
     30 H4          3.4363   -1.6291    7.3651 H         1 <0>         0.4397
     31 C17         2.3897    0.0687    7.9236 C.2       1 <0>         0.6513
     32 O3          2.4616    0.0721    9.1396 O.2       1 <0>        -0.5520
     33 N3          1.7603    0.9843    7.1579 N.am      1 <0>        -0.5499
     34 H5          1.2816    1.7666    7.4737 H         1 <0>         0.4573
     35 N4          1.9306    0.5979    5.8213 N.2       1 <0>        -0.2465
     36 C18         1.9826   -2.7023    2.3582 C.ar      1 <0>        -0.1085
     37 C19         0.7490   -2.7395    2.9811 C.ar      1 <0>        -0.0398
     38 C20         0.0968   -3.9458    3.1523 C.ar      1 <0>        -0.1607
     39 C21         0.6794   -5.1175    2.6996 C.ar      1 <0>         0.1079
     40 C22         1.9149   -5.0790    2.0759 C.ar      1 <0>        -0.1582
     41 C23         2.5628   -3.8709    1.9011 C.ar      1 <0>        -0.0812
     42 F7          0.0429   -6.2974    2.8668 F         1 <0>        -0.1386
     43 H6          1.0039    1.9031    0.0027 H         1 <0>         0.0793
     44 H7         -0.5459    1.8868   -0.8726 H         1 <0>         0.0666
     45 H8         -0.5289    1.8773    0.9072 H         1 <0>         0.0662
     46 H9         -1.6650   -0.2328    2.1152 H         1 <0>         0.1530
     47 H10        -5.0186   -1.8567    0.0401 H         1 <0>         0.1525
     48 H11        -1.4455   -0.9141   -2.0892 H         1 <0>         0.1449
     49 H12         3.0161    1.3496    4.1022 H         1 <0>         0.1064
     50 H13         4.2458    0.5994    3.0553 H         1 <0>         0.0447
     51 H14         1.5198    1.6528    2.1712 H         1 <0>         0.0765
     52 H15         3.0993    2.4024    1.8330 H         1 <0>         0.0997
     53 H16         2.6133   -2.2623    4.6044 H         1 <0>         0.1150
     54 H17         4.1164   -1.3128    4.5185 H         1 <0>         0.0746
     55 H18         0.2949   -1.8255    3.3344 H         1 <0>         0.1466
     56 H19        -0.8667   -3.9746    3.6392 H         1 <0>         0.1342
     57 H20         2.3704   -5.9924    1.7227 H         1 <0>         0.1359
     58 H21         3.5246   -3.8401    1.4106 H         1 <0>         0.1322
@<TRIPOS>BOND
     1    1    2 1
     2    1   43 1
     3    1   44 1
     4    1   45 1
     5    2    3 1
     6    2    4 1
     7    2   18 1
     8    4    9 ar
     9    4    5 ar
    10    5    6 ar
    11    5   46 1
    12    6    7 ar
    13    6   14 1
    14    7    8 ar
    15    7   47 1
    16    8    9 ar
    17    8   10 1
    18    9   48 1
    19   10   11 1
    20   10   12 1
    21   10   13 1
    22   14   15 1
    23   14   16 1
    24   14   17 1
    25   18   19 1
    26   19   20 1
    27   19   26 1
    28   19   21 1
    29   21   22 1
    30   21   23 1
    31   21   36 1
    32   23   24 1
    33   23   27 1
    34   24   25 1
    35   24   49 1
    36   24   50 1
    37   25   26 1
    38   25   51 1
    39   25   52 1
    40   27   28 1
    41   27   53 1
    42   27   54 1
    43   28   35 2
    44   28   29 1
    45   29   30 1
    46   29   31 am
    47   31   32 2
    48   31   33 am
    49   33   34 1
    50   33   35 1
    51   36   41 ar
    52   36   37 ar
    53   37   38 ar
    54   37   55 1
    55   38   39 ar
    56   38   56 1
    57   39   40 ar
    58   39   42 1
    59   40   41 ar
    60   40   57 1
    61   41   58 1
@<TRIPOS>MOLECULE
CHEMBL240645
   46    49     0     0     0
SMALL
USER_CHARGES

@<TRIPOS>ATOM
      1 C1         -0.0215    1.4321    0.0672 C.ar      1 <0>        -0.1006
      2 C2          1.1728    2.1285    0.0444 C.ar      1 <0>        -0.1078
      3 C3          2.3728    1.4430    0.0213 C.ar      1 <0>        -0.1139
      4 C4          2.3796    0.0606    0.0206 C.ar      1 <0>        -0.1004
      5 C5          1.1850   -0.6366    0.0435 C.ar      1 <0>        -0.0285
      6 C6         -0.0160    0.0502    0.0669 C.ar      1 <0>        -0.1050
      7 Cl1         1.1927   -2.3726    0.0420 Cl        1 <0>        -0.0609
      8 C7          3.6741    2.2027   -0.0035 C.3       1 <0>         0.1187
      9 C8          4.2054    2.2430   -1.4132 C.2       1 <0>         0.5294
     10 O1          5.0804    1.4752   -1.7536 O.2       1 <0>        -0.5203
     11 N1          3.7082    3.1322   -2.2956 N.am      1 <0>        -0.6073
     12 C9          2.6521    4.0726   -1.8953 C.3       1 <0>         0.0849
     13 C10         3.1273    5.4997   -2.1951 C.3       1 <0>         0.1073
     14 N2          3.6319    5.5466   -3.5746 N.pl3     1 <0>        -0.6314
     15 C11         4.6880    4.6061   -3.9749 C.3       1 <0>         0.1104
     16 C12         4.2167    3.1828   -3.6735 C.3       1 <0>         0.0966
     17 C13         3.1157    6.4699   -4.4909 C.ar      1 <0>         0.1832
     18 C14         2.0346    7.2754   -4.1305 C.ar      1 <0>        -0.1316
     19 C15         1.5161    8.1818   -5.0095 C.ar      1 <0>        -0.0944
     20 C16         2.0646    8.3122   -6.2830 C.ar      1 <0>         0.0812
     21 C17         3.1556    7.5051   -6.6571 C.ar      1 <0>        -0.1296
     22 C18         3.6820    6.5833   -5.7447 C.ar      1 <0>        -0.1332
     23 C19         3.4911    7.8772   -8.0278 C.2       1 <0>         0.0633
     24 N3          2.6647    8.8126   -8.4003 N.2       1 <0>        -0.2439
     25 N4          1.7750    9.1089   -7.3626 N.pl3     1 <0>        -0.5122
     26 H1          1.0668    9.7706   -7.4000 H         1 <0>         0.4385
     27 N5          4.6487    1.5332    0.8682 N.3       1 <0>        -0.8209
     28 H2         -0.9587    1.9683    0.0897 H         1 <0>         0.1376
     29 H3          1.1680    3.2085    0.0442 H         1 <0>         0.1333
     30 H4          3.3172   -0.4749    0.0019 H         1 <0>         0.1342
     31 H5         -0.9489   -0.4936    0.0847 H         1 <0>         0.1370
     32 H6          3.5078    3.2198    0.3513 H         1 <0>         0.1145
     33 H7          1.7432    3.8636   -2.4595 H         1 <0>         0.0785
     34 H8          2.4553    3.9691   -0.8283 H         1 <0>         0.0945
     35 H9          2.2935    6.1932   -2.0868 H         1 <0>         0.0961
     36 H10         3.9252    5.7723   -1.5043 H         1 <0>         0.0692
     37 H11         4.8848    4.7096   -5.0419 H         1 <0>         0.0971
     38 H12         5.5970    4.8151   -3.4108 H         1 <0>         0.0681
     39 H13         5.0530    2.4919   -3.7805 H         1 <0>         0.1038
     40 H14         3.4217    2.9090   -4.3671 H         1 <0>         0.0728
     41 H15         1.6031    7.1804   -3.1450 H         1 <0>         0.1315
     42 H16         0.6790    8.7984   -4.7171 H         1 <0>         0.1272
     43 H17         4.5217    5.9627   -6.0209 H         1 <0>         0.1296
     44 H18         4.2835    7.4529   -8.6264 H         1 <0>         0.1955
     45 H19         4.3450    1.5504    1.8302 H         1 <0>         0.3538
     46 H20         4.8200    0.5879    0.5599 H         1 <0>         0.3541
@<TRIPOS>BOND
     1    1    6 ar
     2    1    2 ar
     3    1   28 1
     4    2    3 ar
     5    2   29 1
     6    3    4 ar
     7    3    8 1
     8    4    5 ar
     9    4   30 1
    10    5    6 ar
    11    5    7 1
    12    6   31 1
    13    8    9 1
    14    8   27 1
    15    8   32 1
    16    9   10 2
    17    9   11 am
    18   11   16 1
    19   11   12 1
    20   12   13 1
    21   12   33 1
    22   12   34 1
    23   13   14 1
    24   13   35 1
    25   13   36 1
    26   14   15 1
    27   14   17 1
    28   15   16 1
    29   15   37 1
    30   15   38 1
    31   16   39 1
    32   16   40 1
    33   17   22 ar
    34   17   18 ar
    35   18   19 ar
    36   18   41 1
    37   19   20 ar
    38   19   42 1
    39   20   25 1
    40   20   21 ar
    41   21   22 ar
    42   21   23 1
    43   22   43 1
    44   23   24 2
    45   23   44 1
    46   24   25 1
    47   25   26 1
    48   27   45 1
    49   27   46 1
@<TRIPOS>MOLECULE
CHEMBL240645
   46    49     0     0     0
SMALL
USER_CHARGES

@<TRIPOS>ATOM
      1 C1          0.1401    0.7460   -0.1086 C.ar      1 <0>        -0.1013
      2 C2          1.1899    1.6459   -0.1096 C.ar      1 <0>        -0.1109
      3 C3          2.4922    1.1894   -0.0316 C.ar      1 <0>        -0.0645
      4 C4          2.7458   -0.1672    0.0471 C.ar      1 <0>        -0.0875
      5 C5          1.6960   -1.0680    0.0481 C.ar      1 <0>        -0.0301
      6 C6          0.3924   -0.6103   -0.0296 C.ar      1 <0>        -0.1058
      7 Cl1         2.0137   -2.7718    0.1463 Cl        1 <0>        -0.0630
      8 C7          3.6358    2.1708   -0.0327 C.3       1 <0>         0.1175
      9 C8          4.1602    2.3327    1.3708 C.2       1 <0>         0.4879
     10 O1          5.1099    1.6765    1.7428 O.2       1 <0>        -0.5347
     11 N1          3.5738    3.2068    2.2126 N.am      1 <0>        -0.6040
     12 C9          2.3509    3.9199    1.8179 C.3       1 <0>         0.0801
     13 C10         1.2700    3.6611    2.8747 C.3       1 <0>         0.1098
     14 N2          1.8418    3.9178    4.2040 N.pl3     1 <0>        -0.6312
     15 C11         3.0648    3.2048    4.5987 C.3       1 <0>         0.1110
     16 C12         4.1425    3.4594    3.5440 C.3       1 <0>         0.0929
     17 C13         1.2329    4.8254    5.0781 C.ar      1 <0>         0.1829
     18 C14         0.1483    5.5879    4.6425 C.ar      1 <0>        -0.1312
     19 C15        -0.4593    6.4789    5.4791 C.ar      1 <0>        -0.0941
     20 C16         0.0006    6.6367    6.7843 C.ar      1 <0>         0.0816
     21 C17         1.0936    5.8725    7.2345 C.ar      1 <0>        -0.1299
     22 C18         1.7047    4.9580    6.3686 C.ar      1 <0>        -0.1331
     23 C19         1.3259    6.2646    8.6208 C.2       1 <0>         0.0632
     24 N3          0.4437    7.1710    8.9318 N.2       1 <0>        -0.2436
     25 N4         -0.3871    7.4283    7.8365 N.pl3     1 <0>        -0.5120
     26 H1         -1.1193    8.0644    7.8225 H         1 <0>         0.4387
     27 N5          4.7093    1.6707   -0.9019 N.3       1 <0>        -0.8141
     28 H2         -0.8775    1.1035   -0.1651 H         1 <0>         0.1375
     29 H3          0.9922    2.7058   -0.1717 H         1 <0>         0.1326
     30 H4          3.7635   -0.5238    0.1073 H         1 <0>         0.1338
     31 H5         -0.4277   -1.3131   -0.0288 H         1 <0>         0.1362
     32 H6          3.2871    3.1346   -0.4038 H         1 <0>         0.1143
     33 H7          2.5543    4.9890    1.7568 H         1 <0>         0.0786
     34 H8          2.0105    3.5539    0.8492 H         1 <0>         0.0981
     35 H9          0.4250    4.3284    2.7048 H         1 <0>         0.0966
     36 H10         0.9388    2.6244    2.8130 H         1 <0>         0.0689
     37 H11         3.4052    3.5708    5.5673 H         1 <0>         0.0970
     38 H12         2.8614    2.1357    4.6597 H         1 <0>         0.0664
     39 H13         4.9851    2.7894    3.7150 H         1 <0>         0.1024
     40 H14         4.4764    4.4950    3.6087 H         1 <0>         0.0741
     41 H15        -0.2143    5.4718    3.6318 H         1 <0>         0.1315
     42 H16        -1.2975    7.0626    5.1284 H         1 <0>         0.1276
     43 H17         2.5411    4.3640    6.7061 H         1 <0>         0.1291
     44 H18         2.0925    5.8727    9.2729 H         1 <0>         0.1954
     45 H19         5.4606    2.3407   -0.9706 H         1 <0>         0.3516
     46 H20         5.0498    0.7776   -0.5787 H         1 <0>         0.3534
@<TRIPOS>BOND
     1    1    6 ar
     2    1    2 ar
     3    1   28 1
     4    2    3 ar
     5    2   29 1
     6    3    4 ar
     7    3    8 1
     8    4    5 ar
     9    4   30 1
    10    5    6 ar
    11    5    7 1
    12    6   31 1
    13    8    9 1
    14    8   27 1
    15    8   32 1
    16    9   10 2
    17    9   11 am
    18   11   16 1
    19   11   12 1
    20   12   13 1
    21   12   33 1
    22   12   34 1
    23   13   14 1
    24   13   35 1
    25   13   36 1
    26   14   15 1
    27   14   17 1
    28   15   16 1
    29   15   37 1
    30   15   38 1
    31   16   39 1
    32   16   40 1
    33   17   22 ar
    34   17   18 ar
    35   18   19 ar
    36   18   41 1
    37   19   20 ar
    38   19   42 1
    39   20   25 1
    40   20   21 ar
    41   21   22 ar
    42   21   23 1
    43   22   43 1
    44   23   24 2
    45   23   44 1
    46   24   25 1
    47   25   26 1
    48   27   45 1
    49   27   46 1
@<TRIPOS>MOLECULE
CHEMBL541941
   40    42     0     0     0
SMALL
USER_CHARGES

@<TRIPOS>ATOM
      1 C1         -0.0187    1.5258    0.0104 C.3       1 <0>        -0.1625
      2 C2          0.0021   -0.0041    0.0020 C.3       1 <0>        -0.1348
      3 C3          0.7421   -0.5109    1.2415 C.3       1 <0>         0.1746
      4 C4          0.8700   -2.0108    1.1719 C.ar      1 <0>        -0.1367
      5 C5         -0.2663   -2.7971    1.1086 C.ar      1 <0>        -0.0987
      6 C6         -0.1551   -4.1713    1.0447 C.ar      1 <0>        -0.1068
      7 C7          1.1050   -4.7664    1.0440 C.ar      1 <0>        -0.0080
      8 C8          2.2463   -3.9694    1.1079 C.ar      1 <0>        -0.1071
      9 C9          2.1234   -2.5960    1.1658 C.ar      1 <0>        -0.0839
     10 C10         1.2309   -6.2431    0.9759 C.ar      1 <0>        -0.0649
     11 C11         0.0886   -7.0388    0.9067 C.ar      1 <0>        -0.0828
     12 C12         0.2081   -8.4113    0.8430 C.ar      1 <0>        -0.1301
     13 C13         1.4646   -9.0011    0.8483 C.ar      1 <0>         0.1334
     14 C14         2.6053   -8.2112    0.9172 C.ar      1 <0>        -0.0641
     15 C15         2.4917   -6.8369    0.9753 C.ar      1 <0>        -0.0807
     16 Cl1         4.1749   -8.9528    0.9235 Cl        1 <0>        -0.0429
     17 O1          1.5791  -10.3538    0.7863 O.3       1 <0>        -0.4846
     18 N1         -0.0083   -0.1401    2.4439 N.pl3     1 <0>        -0.3974
     19 C16        -1.2873   -0.5182    2.7520 C.2       1 <0>         0.0220
     20 C17        -1.5834    0.0414    3.9406 C.2       1 <0>         0.0057
     21 N2         -0.5144    0.7421    4.3472 N.pl3     1 <0>        -0.4765
     22 C18         0.4347    0.6338    3.4581 C.cat     1 <0>         0.2879
     23 H1          1.0039    1.9031    0.0027 H         1 <0>         0.0664
     24 H2         -0.5459    1.8868   -0.8726 H         1 <0>         0.0765
     25 H3         -0.5289    1.8773    0.9072 H         1 <0>         0.0488
     26 H4         -1.0205   -0.3814    0.0098 H         1 <0>         0.0823
     27 H5          0.5123   -0.3556   -0.8948 H         1 <0>         0.1079
     28 H6          1.7350   -0.0630    1.2804 H         1 <0>         0.1344
     29 H7         -1.2424   -2.3348    1.1096 H         1 <0>         0.1251
     30 H8         -1.0429   -4.7842    0.9957 H         1 <0>         0.1367
     31 H9          3.2253   -4.4254    1.1080 H         1 <0>         0.1370
     32 H10         3.0073   -1.9771    1.2106 H         1 <0>         0.1339
     33 H11        -0.8896   -6.5809    0.9033 H         1 <0>         0.1375
     34 H12        -0.6769   -9.0279    0.7894 H         1 <0>         0.1462
     35 H13         3.3786   -6.2227    1.0243 H         1 <0>         0.1413
     36 H14         1.6359  -10.7029   -0.1137 H         1 <0>         0.4005
     37 H15        -1.9346   -1.1446    2.1562 H         1 <0>         0.2178
     38 H16        -2.5179   -0.0568    4.4731 H         1 <0>         0.2233
     39 H17         1.4117    1.0898    3.5215 H         1 <0>         0.2587
     40 H18        -0.4548    1.2466    5.1735 H         1 <0>         0.4647
@<TRIPOS>BOND
     1    1    2 1
     2    1   23 1
     3    1   24 1
     4    1   25 1
     5    2    3 1
     6    2   26 1
     7    2   27 1
     8    3    4 1
     9    3   18 1
    10    3   28 1
    11    4    9 ar
    12    4    5 ar
    13    5    6 ar
    14    5   29 1
    15    6    7 ar
    16    6   30 1
    17    7    8 ar
    18    7   10 1
    19    8    9 ar
    20    8   31 1
    21    9   32 1
    22   10   15 ar
    23   10   11 ar
    24   11   12 ar
    25   11   33 1
    26   12   13 ar
    27   12   34 1
    28   13   14 ar
    29   13   17 1
    30   14   15 ar
    31   14   16 1
    32   15   35 1
    33   17   36 1
    34   18   22 1
    35   18   19 1
    36   19   20 2
    37   19   37 1
    38   20   21 1
    39   20   38 1
    40   21   22 2
    41   21   40 1
    42   22   39 1
@<TRIPOS>MOLECULE
CHEMBL541941
   39    41     0     0     0
SMALL
USER_CHARGES

@<TRIPOS>ATOM
      1 C1         -0.0187    1.5258    0.0104 C.3       1 <0>        -0.1549
      2 C2          0.0021   -0.0041    0.0020 C.3       1 <0>        -0.1299
      3 C3          0.7182   -0.4975   -1.2568 C.3       1 <0>         0.1774
      4 C4          0.6316   -2.0003   -1.3275 C.ar      1 <0>        -0.1033
      5 C5          1.1644   -2.7699   -0.3090 C.ar      1 <0>        -0.0996
      6 C6          1.0880   -4.1466   -0.3686 C.ar      1 <0>        -0.1040
      7 C7          0.4726   -4.7612   -1.4574 C.ar      1 <0>        -0.0354
      8 C8         -0.0624   -3.9810   -2.4806 C.ar      1 <0>        -0.1064
      9 C9          0.0147   -2.6049   -2.4079 C.ar      1 <0>        -0.0958
     10 C10         0.3878   -6.2407   -1.5273 C.ar      1 <0>        -0.0447
     11 C11         0.9187   -7.0198   -0.5006 C.ar      1 <0>        -0.0882
     12 C12         0.8383   -8.3950   -0.5675 C.ar      1 <0>        -0.1285
     13 C13         0.2297   -9.0041   -1.6563 C.ar      1 <0>         0.1204
     14 C14        -0.3005   -8.2308   -2.6813 C.ar      1 <0>        -0.0608
     15 C15        -0.2279   -6.8540   -2.6168 C.ar      1 <0>        -0.0872
     16 Cl1        -1.0607   -8.9966   -4.0412 Cl        1 <0>        -0.0513
     17 O1          0.1528  -10.3594   -1.7197 O.3       1 <0>        -0.4859
     18 N1          2.1249   -0.0911   -1.2094 N.pl3     1 <0>        -0.4480
     19 C16         2.7695    0.7111   -2.1120 C.2       1 <0>        -0.0539
     20 C17         4.0430    0.8275   -1.6900 C.2       1 <0>        -0.0294
     21 N2          4.1726    0.1158   -0.5605 N.2       1 <0>        -0.4927
     22 C18         3.0264   -0.4331   -0.2638 C.2       1 <0>         0.1806
     23 H1          1.0039    1.9031    0.0027 H         1 <0>         0.0578
     24 H2         -0.5459    1.8868   -0.8726 H         1 <0>         0.0574
     25 H3         -0.5289    1.8773    0.9072 H         1 <0>         0.0633
     26 H4          0.5293   -0.3651    0.8851 H         1 <0>         0.0740
     27 H5         -1.0205   -0.3814    0.0098 H         1 <0>         0.0869
     28 H6          0.2444   -0.0644   -2.1377 H         1 <0>         0.1084
     29 H7          1.6415   -2.2925    0.5342 H         1 <0>         0.1265
     30 H8          1.5046   -4.7465    0.4270 H         1 <0>         0.1314
     31 H9         -0.5401   -4.4521   -3.3269 H         1 <0>         0.1302
     32 H10        -0.4038   -1.9991   -3.1980 H         1 <0>         0.1287
     33 H11         1.3930   -6.5468    0.3466 H         1 <0>         0.1382
     34 H12         1.2496   -8.9986    0.2280 H         1 <0>         0.1432
     35 H13        -0.6440   -6.2528   -3.4116 H         1 <0>         0.1408
     36 H14        -0.6460  -10.7272   -1.3177 H         1 <0>         0.3955
     37 H15         2.3394    1.1635   -2.9934 H         1 <0>         0.1724
     38 H16         4.8233    1.3945   -2.1758 H         1 <0>         0.1687
     39 H17         2.8317   -1.0593    0.5943 H         1 <0>         0.1979
@<TRIPOS>BOND
     1    1    2 1
     2    1   23 1
     3    1   24 1
     4    1   25 1
     5    2    3 1
     6    2   26 1
     7    2   27 1
     8    3    4 1
     9    3   18 1
    10    3   28 1
    11    4    9 ar
    12    4    5 ar
    13    5    6 ar
    14    5   29 1
    15    6    7 ar
    16    6   30 1
    17    7    8 ar
    18    7   10 1
    19    8    9 ar
    20    8   31 1
    21    9   32 1
    22   10   15 ar
    23   10   11 ar
    24   11   12 ar
    25   11   33 1
    26   12   13 ar
    27   12   34 1
    28   13   14 ar
    29   13   17 1
    30   14   15 ar
    31   14   16 1
    32   15   35 1
    33   17   36 1
    34   18   22 1
    35   18   19 1
    36   19   20 2
    37   19   37 1
    38   20   21 1
    39   20   38 1
    40   21   22 2
    41   22   39 1
@<TRIPOS>MOLECULE
CHEMBL541941
   40    42     0     0     0
SMALL
USER_CHARGES

@<TRIPOS>ATOM
      1 C1         -0.0187    1.5258    0.0104 C.3       1 <0>        -0.1539
      2 C2          0.0021   -0.0041    0.0020 C.3       1 <0>        -0.1310
      3 C3          0.7421   -0.5109    1.2415 C.3       1 <0>         0.1721
      4 C4         -0.0298   -0.1295    2.4784 C.ar      1 <0>        -0.1320
      5 C5         -1.3224   -0.5898    2.6532 C.ar      1 <0>        -0.0995
      6 C6         -2.0340   -0.2436    3.7840 C.ar      1 <0>        -0.1062
      7 C7         -1.4478    0.5713    4.7505 C.ar      1 <0>        -0.0087
      8 C8         -0.1453    1.0322    4.5692 C.ar      1 <0>        -0.1066
      9 C9          0.5590    0.6751    3.4372 C.ar      1 <0>        -0.0843
     10 C10        -2.2079    0.9472    5.9679 C.ar      1 <0>        -0.0645
     11 C11        -3.5088    0.4812    6.1505 C.ar      1 <0>        -0.0830
     12 C12        -4.2132    0.8316    7.2833 C.ar      1 <0>        -0.1301
     13 C13        -3.6284    1.6481    8.2414 C.ar      1 <0>         0.1331
     14 C14        -2.3321    2.1144    8.0627 C.ar      1 <0>        -0.0639
     15 C15        -1.6205    1.7622    6.9338 C.ar      1 <0>        -0.0809
     16 Cl1        -1.6044    3.1355    9.2634 Cl        1 <0>        -0.0430
     17 O1         -4.3254    1.9924    9.3560 O.3       1 <0>        -0.4841
     18 N1          0.8664   -1.9690    1.1738 N.pl3     1 <0>        -0.4005
     19 C16        -0.1622   -2.8697    1.1067 C.2       1 <0>         0.0216
     20 C17         0.3951   -4.0948    1.0594 C.2       1 <0>         0.0057
     21 N2          1.7276   -3.9462    1.0966 N.pl3     1 <0>        -0.4766
     22 C18         2.0173   -2.6753    1.1601 C.cat     1 <0>         0.2887
     23 H1          1.0039    1.9031    0.0027 H         1 <0>         0.0647
     24 H2         -0.5459    1.8868   -0.8726 H         1 <0>         0.0750
     25 H3         -0.5289    1.8773    0.9072 H         1 <0>         0.0676
     26 H4         -1.0205   -0.3814    0.0098 H         1 <0>         0.0819
     27 H5          0.5123   -0.3556   -0.8948 H         1 <0>         0.0824
     28 H6          1.7350   -0.0630    1.2804 H         1 <0>         0.1341
     29 H7         -1.7759   -1.2210    1.9033 H         1 <0>         0.1247
     30 H8         -3.0433   -0.6033    3.9193 H         1 <0>         0.1365
     31 H9          0.3137    1.6643    5.3150 H         1 <0>         0.1368
     32 H10         1.5702    1.0278    3.2979 H         1 <0>         0.1335
     33 H11        -3.9650   -0.1536    5.4053 H         1 <0>         0.1374
     34 H12        -5.2212    0.4705    7.4248 H         1 <0>         0.1461
     35 H13        -0.6111    2.1212    6.7971 H         1 <0>         0.1412
     36 H14        -4.2135    1.3788   10.0950 H         1 <0>         0.3999
     37 H15        -1.2177   -2.6417    1.0944 H         1 <0>         0.2182
     38 H16        -0.1376   -5.0325    1.0016 H         1 <0>         0.2235
     39 H17         3.0126   -2.2578    1.1981 H         1 <0>         0.2593
     40 H18         2.3740   -4.6691    1.0759 H         1 <0>         0.4649
@<TRIPOS>BOND
     1    1    2 1
     2    1   23 1
     3    1   24 1
     4    1   25 1
     5    2    3 1
     6    2   26 1
     7    2   27 1
     8    3    4 1
     9    3   18 1
    10    3   28 1
    11    4    9 ar
    12    4    5 ar
    13    5    6 ar
    14    5   29 1
    15    6    7 ar
    16    6   30 1
    17    7    8 ar
    18    7   10 1
    19    8    9 ar
    20    8   31 1
    21    9   32 1
    22   10   15 ar
    23   10   11 ar
    24   11   12 ar
    25   11   33 1
    26   12   13 ar
    27   12   34 1
    28   13   14 ar
    29   13   17 1
    30   14   15 ar
    31   14   16 1
    32   15   35 1
    33   17   36 1
    34   18   22 1
    35   18   19 1
    36   19   20 2
    37   19   37 1
    38   20   21 1
    39   20   38 1
    40   21   22 2
    41   21   40 1
    42   22   39 1
@<TRIPOS>MOLECULE
CHEMBL541941
   39    41     0     0     0
SMALL
USER_CHARGES

@<TRIPOS>ATOM
      1 C1         -0.0187    1.5258    0.0104 C.3       1 <0>        -0.1503
      2 C2          0.0021   -0.0041    0.0020 C.3       1 <0>        -0.1294
      3 C3          0.7182   -0.4975   -1.2568 C.3       1 <0>         0.1766
      4 C4          2.1652   -0.0794   -1.2080 C.ar      1 <0>        -0.0986
      5 C5          2.9741   -0.5160   -0.1743 C.ar      1 <0>        -0.1006
      6 C6          4.3000   -0.1362   -0.1246 C.ar      1 <0>        -0.1035
      7 C7          4.8236    0.6886   -1.1184 C.ar      1 <0>        -0.0359
      8 C8          4.0041    1.1254   -2.1574 C.ar      1 <0>        -0.1061
      9 C9          2.6810    0.7349   -2.2001 C.ar      1 <0>        -0.0961
     10 C10         6.2480    1.1006   -1.0701 C.ar      1 <0>        -0.0444
     11 C11         7.0679    0.6586   -0.0331 C.ar      1 <0>        -0.0884
     12 C12         8.3918    1.0425    0.0094 C.ar      1 <0>        -0.1285
     13 C13         8.9086    1.8689   -0.9789 C.ar      1 <0>         0.1202
     14 C14         8.0945    2.3113   -2.0139 C.ar      1 <0>        -0.0608
     15 C15         6.7702    1.9255   -2.0645 C.ar      1 <0>        -0.0873
     16 Cl1         8.7447    3.3446   -3.2480 Cl        1 <0>        -0.0513
     17 O1         10.2134    2.2461   -0.9338 O.3       1 <0>        -0.4861
     18 N1          0.6341   -1.9585   -1.3255 N.pl3     1 <0>        -0.4519
     19 C16         0.0619   -2.6927   -2.3291 C.2       1 <0>        -0.0551
     20 C17         0.2050   -3.9891   -1.9936 C.2       1 <0>        -0.0288
     21 N2          0.8470   -4.0448   -0.8173 N.2       1 <0>        -0.4930
     22 C18         1.1117   -2.8324   -0.4135 C.2       1 <0>         0.1806
     23 H1          1.0039    1.9031    0.0027 H         1 <0>         0.0617
     24 H2         -0.5459    1.8868   -0.8726 H         1 <0>         0.0586
     25 H3         -0.5289    1.8773    0.9072 H         1 <0>         0.0648
     26 H4          0.5293   -0.3651    0.8851 H         1 <0>         0.0740
     27 H5         -1.0205   -0.3814    0.0098 H         1 <0>         0.0763
     28 H6          0.2444   -0.0644   -2.1377 H         1 <0>         0.1083
     29 H7          2.5672   -1.1549    0.5955 H         1 <0>         0.1262
     30 H8          4.9306   -0.4773    0.6831 H         1 <0>         0.1312
     31 H9          4.4046    1.7651   -2.9299 H         1 <0>         0.1300
     32 H10         2.0462    1.0689   -3.0075 H         1 <0>         0.1283
     33 H11         6.6666    0.0162    0.7368 H         1 <0>         0.1381
     34 H12         9.0272    0.7001    0.8129 H         1 <0>         0.1432
     35 H13         6.1384    2.2659   -2.8716 H         1 <0>         0.1408
     36 H14        10.8127    1.6458   -1.3980 H         1 <0>         0.3957
     37 H15        -0.4133   -2.3066   -3.2188 H         1 <0>         0.1733
     38 H16        -0.1373   -4.8355   -2.5706 H         1 <0>         0.1695
     39 H17         1.6253   -2.5712    0.4999 H         1 <0>         0.1989
@<TRIPOS>BOND
     1    1    2 1
     2    1   23 1
     3    1   24 1
     4    1   25 1
     5    2    3 1
     6    2   26 1
     7    2   27 1
     8    3    4 1
     9    3   18 1
    10    3   28 1
    11    4    9 ar
    12    4    5 ar
    13    5    6 ar
    14    5   29 1
    15    6    7 ar
    16    6   30 1
    17    7    8 ar
    18    7   10 1
    19    8    9 ar
    20    8   31 1
    21    9   32 1
    22   10   15 ar
    23   10   11 ar
    24   11   12 ar
    25   11   33 1
    26   12   13 ar
    27   12   34 1
    28   13   14 ar
    29   13   17 1
    30   14   15 ar
    31   14   16 1
    32   15   35 1
    33   17   36 1
    34   18   22 1
    35   18   19 1
    36   19   20 2
    37   19   37 1
    38   20   21 1
    39   20   38 1
    40   21   22 2
    41   22   39 1
@<TRIPOS>MOLECULE
CHEMBL207100
   63    67     0     0     0
SMALL
USER_CHARGES

@<TRIPOS>ATOM
      1 C1         -0.0187    1.5258    0.0104 C.3       1 <0>        -0.1452
      2 C2          0.0021   -0.0041    0.0020 C.3       1 <0>        -0.1133
      3 C3          0.7421   -0.5109    1.2415 C.3       1 <0>        -0.1434
      4 C4         -1.4333   -0.5336    0.0129 C.3       1 <0>         0.1081
      5 N1         -1.4164   -1.9929   -0.1155 N.am      1 <0>        -0.4913
      6 C5         -1.4501   -2.5640   -1.3560 C.2       1 <0>         0.1202
      7 C6         -1.4355   -3.9472   -1.5224 C.2       1 <0>        -0.2297
      8 C7         -1.4753   -4.4082   -2.9099 C.2       1 <0>        -0.0651
      9 C8         -1.5221   -3.4774   -3.9019 C.2       1 <0>        -0.1317
     10 S1         -1.5147   -1.9329   -3.0119 S.3       1 <0>         0.1796
     11 C9         -1.5683   -3.6989   -5.3918 C.3       1 <0>         0.0112
     12 C10        -3.0036   -3.7937   -5.8413 C.ar      1 <0>        -0.1365
     13 C11        -3.6132   -5.0051   -5.9685 C.ar      1 <0>         0.1128
     14 N2         -4.8742   -5.1163   -6.3623 N.ar      1 <0>        -0.4821
     15 C12        -5.6214   -4.0777   -6.6555 C.ar      1 <0>         0.1524
     16 C13        -5.0887   -2.7825   -6.5567 C.ar      1 <0>        -0.1161
     17 C14        -3.7424   -2.6327   -6.1323 C.ar      1 <0>        -0.0088
     18 C15        -3.1911   -1.3480   -6.0212 C.ar      1 <0>        -0.1211
     19 C16        -3.9577   -0.2617   -6.3173 C.ar      1 <0>        -0.0874
     20 C17        -5.2814   -0.4073   -6.7289 C.ar      1 <0>        -0.1238
     21 C18        -5.8459   -1.6397   -6.8588 C.ar      1 <0>        -0.0783
     22 C19        -1.4646   -5.8441   -3.2258 C.2       1 <0>         0.5997
     23 O1         -2.5130   -6.4538   -3.3212 O.2       1 <0>        -0.5071
     24 N3         -0.2932   -6.4848   -3.4098 N.am      1 <0>        -0.6061
     25 C20         1.0447   -5.8726   -3.3180 C.3       1 <0>         0.1021
     26 C21         1.9970   -7.0485   -2.9861 C.3       1 <0>        -0.1679
     27 C22         1.3755   -8.1982   -3.8224 C.3       1 <0>         0.0953
     28 H1          1.7175   -8.1515   -4.8563 H         1 <0>         0.0784
     29 C23        -0.1379   -7.9115   -3.7291 C.3       1 <0>         0.1147
     30 O2          1.6866   -9.4681   -3.2457 O.3       1 <0>        -0.5561
     31 C24        -1.3827   -4.7387   -0.2752 C.2       1 <0>         0.5705
     32 O3         -1.3662   -5.9554   -0.3188 O.2       1 <0>        -0.4832
     33 N4         -1.3528   -4.1008    0.9081 N.am      1 <0>        -0.5531
     34 C25        -1.3623   -2.7601    0.9908 C.2       1 <0>         0.7064
     35 O4         -1.3281   -2.2293    2.0843 O.2       1 <0>        -0.5147
     36 C26        -1.3010   -4.8899    2.1413 C.3       1 <0>         0.0775
     37 H2          1.0039    1.9031    0.0027 H         1 <0>         0.0661
     38 H3         -0.5459    1.8868   -0.8726 H         1 <0>         0.0598
     39 H4         -0.5289    1.8773    0.9072 H         1 <0>         0.0624
     40 H5          0.5123   -0.3556   -0.8948 H         1 <0>         0.0759
     41 H6          1.7647   -0.1336    1.2338 H         1 <0>         0.0580
     42 H7          0.2319   -0.1594    2.1383 H         1 <0>         0.0672
     43 H8          0.7568   -1.6008    1.2356 H         1 <0>         0.0465
     44 H9         -1.9156   -0.2570    0.9504 H         1 <0>         0.1130
     45 H10        -1.9862   -0.1019   -0.8214 H         1 <0>         0.0955
     46 H11        -1.0833   -2.8644   -5.8984 H         1 <0>         0.1027
     47 H12        -1.0486   -4.6249   -5.6378 H         1 <0>         0.1039
     48 H13        -3.0532   -5.9005   -5.7425 H         1 <0>         0.1522
     49 H14        -6.6441   -4.2192   -6.9725 H         1 <0>         0.1653
     50 H15        -2.1669   -1.2210   -5.7030 H         1 <0>         0.1238
     51 H16        -3.5334    0.7277   -6.2314 H         1 <0>         0.1285
     52 H17        -5.8663    0.4715   -6.9569 H         1 <0>         0.1288
     53 H18        -6.8728   -1.7366   -7.1791 H         1 <0>         0.1351
     54 H19         1.3202   -5.4184   -4.2698 H         1 <0>         0.0761
     55 H20         1.0679   -5.1292   -2.5212 H         1 <0>         0.0752
     56 H21         3.0138   -6.8323   -3.3141 H         1 <0>         0.0894
     57 H22         1.9728   -7.2823   -1.9218 H         1 <0>         0.0875
     58 H23        -0.5842   -8.5184   -2.9413 H         1 <0>         0.0846
     59 H24        -0.6145   -8.1317   -4.6844 H         1 <0>         0.0799
     60 H25         2.6332   -9.6619   -3.2085 H         1 <0>         0.3852
     61 H26        -1.2941   -5.9514    1.8935 H         1 <0>         0.1050
     62 H27        -0.3957   -4.6402    2.6947 H         1 <0>         0.0826
     63 H28        -2.1745   -4.6654    2.7534 H         1 <0>         0.0828
@<TRIPOS>BOND
     1    1    2 1
     2    1   37 1
     3    1   38 1
     4    1   39 1
     5    2    3 1
     6    2    4 1
     7    2   40 1
     8    3   41 1
     9    3   42 1
    10    3   43 1
    11    4    5 1
    12    4   44 1
    13    4   45 1
    14    5   34 am
    15    5    6 1
    16    6   10 1
    17    6    7 2
    18    7    8 1
    19    7   31 1
    20    8    9 2
    21    8   22 1
    22    9   10 1
    23    9   11 1
    24   11   12 1
    25   11   46 1
    26   11   47 1
    27   12   17 ar
    28   12   13 ar
    29   13   14 ar
    30   13   48 1
    31   14   15 ar
    32   15   16 ar
    33   15   49 1
    34   16   21 ar
    35   16   17 ar
    36   17   18 ar
    37   18   19 ar
    38   18   50 1
    39   19   20 ar
    40   19   51 1
    41   20   21 ar
    42   20   52 1
    43   21   53 1
    44   22   23 2
    45   22   24 am
    46   24   29 1
    47   24   25 1
    48   25   26 1
    49   25   54 1
    50   25   55 1
    51   26   27 1
    52   26   56 1
    53   26   57 1
    54   27   28 1
    55   27   29 1
    56   27   30 1
    57   29   58 1
    58   29   59 1
    59   30   60 1
    60   31   32 2
    61   31   33 am
    62   33   34 am
    63   33   36 1
    64   34   35 2
    65   36   61 1
    66   36   62 1
    67   36   63 1
@<TRIPOS>MOLECULE
CHEMBL287400
   60    64     0     0     0
SMALL
USER_CHARGES

@<TRIPOS>ATOM
      1 C1          6.7838   -5.5545   -0.3789 C.3       1 <0>        -0.1115
      2 C2          5.2785   -5.5566   -0.3062 C.ar      1 <0>         0.2008
      3 C3          4.5464   -5.4195   -1.4731 C.ar      1 <0>        -0.1724
      4 C4          3.1523   -5.4216   -1.4046 C.ar      1 <0>        -0.0032
      5 C5          2.5561   -5.5645   -0.1395 C.ar      1 <0>        -0.1212
      6 C6          1.1666   -5.6121    0.3313 C.ar      1 <0>         0.1695
      7 C7          1.2281   -5.7718    1.7223 C.ar      1 <0>         0.0477
      8 C8          0.0201   -5.8473    2.4294 C.ar      1 <0>         0.3957
      9 N1         -1.1208   -5.7646    1.7540 N.ar      1 <0>        -0.4985
     10 C9         -1.1312   -5.6143    0.4423 C.ar      1 <0>         0.2792
     11 N2         -0.0241   -5.5380   -0.2638 N.ar      1 <0>        -0.4206
     12 N3          0.0162   -6.0056    3.8066 N.pl3     1 <0>        -0.6596
     13 C10        -0.1139   -4.8449    4.7010 C.3       1 <0>         0.1205
     14 C11        -1.2254   -5.1351    5.7150 C.3       1 <0>        -0.0213
     15 N4         -0.9411   -6.4011    6.4024 N.4       1 <0>        -0.3809
     16 C12        -0.9821   -7.5116    5.4426 C.3       1 <0>        -0.0279
     17 C13         0.1358   -7.3396    4.4150 C.3       1 <0>         0.1194
     18 C14        -1.9468   -6.6241    7.4497 C.3       1 <0>        -0.0080
     19 C15        -1.5821   -7.8771    8.2484 C.3       1 <0>        -0.0994
     20 C16        -2.6138   -8.1059    9.3228 C.ar      1 <0>        -0.0898
     21 C17        -2.4483   -7.5361   10.5716 C.ar      1 <0>        -0.0890
     22 C18        -3.3931   -7.7445   11.5586 C.ar      1 <0>        -0.1199
     23 C19        -4.5067   -8.5239   11.2972 C.ar      1 <0>         0.0853
     24 C20        -4.6728   -9.0949   10.0447 C.ar      1 <0>         0.0756
     25 C21        -3.7272   -8.8804    9.0570 C.ar      1 <0>        -0.1169
     26 F1         -5.7587   -9.8564    9.7874 F         1 <0>        -0.1190
     27 F2         -5.4304   -8.7284   12.2616 F         1 <0>        -0.1174
     28 N5          2.5561   -5.8213    2.1007 N.pl3     1 <0>        -0.4732
     29 C22         3.3728   -5.6985    0.9968 C.ar      1 <0>         0.3578
     30 N6          4.6933   -5.6941    0.8638 N.ar      1 <0>        -0.4907
     31 C23         3.0288   -5.9813    3.4781 C.3       1 <0>         0.0863
     32 C24         2.3278   -5.2774   -2.6251 C.2       1 <0>         0.5459
     33 O1          1.1152   -5.2818   -2.5433 O.2       1 <0>        -0.4830
     34 N7          2.9216   -5.1412   -3.8273 N.am      1 <0>        -0.8462
     35 H1          7.1422   -6.5743   -0.5185 H         1 <0>         0.0912
     36 H2          7.1062   -4.9380   -1.2180 H         1 <0>         0.0883
     37 H3          7.1917   -5.1496    0.5473 H         1 <0>         0.0856
     38 H4          5.0472   -5.3119   -2.4239 H         1 <0>         0.1539
     39 H5         -2.0809   -5.5514   -0.0681 H         1 <0>         0.2076
     40 H6          0.8269   -4.6798    5.2261 H         1 <0>         0.0852
     41 H7         -0.3715   -3.9605    4.1183 H         1 <0>         0.1183
     42 H8         -1.2712   -4.3273    6.4453 H         1 <0>         0.1403
     43 H9         -2.1807   -5.2102    5.1955 H         1 <0>         0.1375
     44 H10        -0.8486   -8.4549    5.9722 H         1 <0>         0.1412
     45 H11        -1.9448   -7.5147    4.9313 H         1 <0>         0.1375
     46 H12         0.0432   -8.1038    3.6433 H         1 <0>         0.1167
     47 H13         1.1023   -7.4307    4.9108 H         1 <0>         0.0851
     48 H14        -1.9734   -5.7628    8.1171 H         1 <0>         0.1361
     49 H15        -2.9261   -6.7583    6.9904 H         1 <0>         0.1335
     50 H16        -1.5555   -8.7385    7.5810 H         1 <0>         0.1000
     51 H17        -0.6028   -7.7430    8.7077 H         1 <0>         0.1029
     52 H18        -1.5796   -6.9279   10.7762 H         1 <0>         0.1441
     53 H19        -3.2623   -7.2995   12.5339 H         1 <0>         0.1547
     54 H20        -3.8574   -9.3215    8.0798 H         1 <0>         0.1485
     55 H21         3.0501   -7.0406    3.7341 H         1 <0>         0.0696
     56 H22         4.0322   -5.5653    3.5685 H         1 <0>         0.0952
     57 H23         2.3556   -5.4570    4.1564 H         1 <0>         0.0788
     58 H24         3.8894   -5.1377   -3.8925 H         1 <0>         0.4010
     59 H25         2.3812   -5.0467   -4.6272 H         1 <0>         0.4122
     60 H26        -0.0252   -6.3556    6.8232 H         1 <0>         0.4214
@<TRIPOS>BOND
     1    1    2 1
     2    1   35 1
     3    1   36 1
     4    1   37 1
     5    2   30 ar
     6    2    3 ar
     7    3    4 ar
     8    3   38 1
     9    4    5 ar
    10    4   32 1
    11    5   29 ar
    12    5    6 1
    13    6   11 ar
    14    6    7 ar
    15    7    8 ar
    16    7   28 1
    17    8    9 ar
    18    8   12 1
    19    9   10 ar
    20   10   11 ar
    21   10   39 1
    22   12   17 1
    23   12   13 1
    24   13   14 1
    25   13   40 1
    26   13   41 1
    27   14   15 1
    28   14   42 1
    29   14   43 1
    30   15   16 1
    31   15   18 1
    32   15   60 1
    33   16   17 1
    34   16   44 1
    35   16   45 1
    36   17   46 1
    37   17   47 1
    38   18   19 1
    39   18   48 1
    40   18   49 1
    41   19   20 1
    42   19   50 1
    43   19   51 1
    44   20   25 ar
    45   20   21 ar
    46   21   22 ar
    47   21   52 1
    48   22   23 ar
    49   22   53 1
    50   23   24 ar
    51   23   27 1
    52   24   25 ar
    53   24   26 1
    54   25   54 1
    55   28   29 1
    56   28   31 1
    57   29   30 ar
    58   31   55 1
    59   31   56 1
    60   31   57 1
    61   32   33 2
    62   32   34 am
    63   34   58 1
    64   34   59 1
@<TRIPOS>MOLECULE
CHEMBL287400
   59    63     0     0     0
SMALL
USER_CHARGES

@<TRIPOS>ATOM
      1 C1          6.7831   -5.5507   -0.3775 C.3       1 <0>        -0.1075
      2 C2          5.2779   -5.5537   -0.3051 C.ar      1 <0>         0.1921
      3 C3          4.5459   -5.4170   -1.4722 C.ar      1 <0>        -0.1804
      4 C4          3.1517   -5.4198   -1.4039 C.ar      1 <0>        -0.0071
      5 C5          2.5554   -5.5631   -0.1390 C.ar      1 <0>        -0.1177
      6 C6          1.1659   -5.6114    0.3315 C.ar      1 <0>         0.1579
      7 C7          1.2271   -5.7710    1.7226 C.ar      1 <0>         0.0412
      8 C8          0.0191   -5.8472    2.4294 C.ar      1 <0>         0.4248
      9 N1         -1.1217   -5.7652    1.7538 N.ar      1 <0>        -0.5021
     10 C9         -1.1320   -5.6148    0.4421 C.ar      1 <0>         0.2748
     11 N2         -0.0247   -5.5380   -0.2638 N.ar      1 <0>        -0.4355
     12 N3          0.0150   -6.0054    3.8066 N.pl3     1 <0>        -0.6607
     13 C10        -0.1153   -4.8440    4.6996 C.3       1 <0>         0.1517
     14 C11        -1.2396   -5.1246    5.7023 C.3       1 <0>         0.0410
     15 N4         -0.9803   -6.4024    6.3790 N.3       1 <0>        -0.5341
     16 C12        -0.9936   -7.5215    5.4276 C.3       1 <0>         0.0357
     17 C13         0.1346   -7.3398    4.4135 C.3       1 <0>         0.1509
     18 C14        -1.9405   -6.6257    7.4680 C.3       1 <0>         0.0606
     19 C15        -1.4946   -7.8280    8.3026 C.3       1 <0>        -0.0776
     20 C16        -2.4796   -8.0571    9.4198 C.ar      1 <0>        -0.0629
     21 C17        -2.2994   -7.4302   10.6388 C.ar      1 <0>        -0.0950
     22 C18        -3.2015   -7.6387   11.6649 C.ar      1 <0>        -0.1220
     23 C19        -4.2870   -8.4757   11.4727 C.ar      1 <0>         0.0633
     24 C20        -4.4680   -9.1041   10.2501 C.ar      1 <0>         0.0707
     25 C21        -3.5654   -8.8894    9.2229 C.ar      1 <0>        -0.1238
     26 F1         -5.5265   -9.9218   10.0602 F         1 <0>        -0.1275
     27 F2         -5.1690   -8.6804   12.4754 F         1 <0>        -0.1281
     28 N5          2.5551   -5.8198    2.1012 N.pl3     1 <0>        -0.4677
     29 C22         3.3719   -5.6966    0.9975 C.ar      1 <0>         0.3577
     30 N6          4.6924   -5.6915    0.8647 N.ar      1 <0>        -0.4905
     31 C23         3.0276   -5.9795    3.4787 C.3       1 <0>         0.0845
     32 C24         2.3274   -5.2761   -2.6246 C.2       1 <0>         0.5458
     33 O1          1.1149   -5.2812   -2.5431 O.2       1 <0>        -0.4797
     34 N7          2.9214   -5.1397   -3.8267 N.am      1 <0>        -0.8500
     35 H1          7.1422   -6.5704   -0.5171 H         1 <0>         0.0872
     36 H2          7.1053   -4.9341   -1.2166 H         1 <0>         0.0842
     37 H3          7.1906   -5.1456    0.5487 H         1 <0>         0.0834
     38 H4          5.0469   -5.3091   -2.4229 H         1 <0>         0.1488
     39 H5         -2.0816   -5.5525   -0.0685 H         1 <0>         0.2017
     40 H6          0.8213   -4.6864    5.2343 H         1 <0>         0.0664
     41 H7         -0.3596   -3.9576    4.1141 H         1 <0>         0.0735
     42 H8         -1.2772   -4.3232    6.4402 H         1 <0>         0.0838
     43 H9         -2.1921   -5.1790    5.1750 H         1 <0>         0.0434
     44 H10        -0.8528   -8.4586    5.9663 H         1 <0>         0.0863
     45 H11        -1.9495   -7.5426    4.9041 H         1 <0>         0.0421
     46 H12         0.0555   -8.1027    3.6391 H         1 <0>         0.0711
     47 H13         1.0958   -7.4267    4.9203 H         1 <0>         0.0665
     48 H14        -1.9840   -5.7398    8.1015 H         1 <0>         0.0798
     49 H15        -2.9273   -6.8209    7.0481 H         1 <0>         0.0379
     50 H16        -1.4511   -8.7140    7.6691 H         1 <0>         0.0780
     51 H17        -0.5078   -7.6329    8.7226 H         1 <0>         0.0900
     52 H18        -1.4526   -6.7770   10.7894 H         1 <0>         0.1424
     53 H19        -3.0592   -7.1489   12.6169 H         1 <0>         0.1476
     54 H20        -3.7074   -9.3753    8.2689 H         1 <0>         0.1444
     55 H21         3.0494   -7.0388    3.7348 H         1 <0>         0.0706
     56 H22         4.0308   -5.5631    3.5693 H         1 <0>         0.0895
     57 H23         2.3541   -5.4556    4.1569 H         1 <0>         0.0903
     58 H24         3.8892   -5.1356   -3.8918 H         1 <0>         0.3993
     59 H25         2.3811   -5.0455   -4.6268 H         1 <0>         0.4089
@<TRIPOS>BOND
     1    1    2 1
     2    1   35 1
     3    1   36 1
     4    1   37 1
     5    2   30 ar
     6    2    3 ar
     7    3    4 ar
     8    3   38 1
     9    4    5 ar
    10    4   32 1
    11    5   29 ar
    12    5    6 1
    13    6   11 ar
    14    6    7 ar
    15    7    8 ar
    16    7   28 1
    17    8    9 ar
    18    8   12 1
    19    9   10 ar
    20   10   11 ar
    21   10   39 1
    22   12   17 1
    23   12   13 1
    24   13   14 1
    25   13   40 1
    26   13   41 1
    27   14   15 1
    28   14   42 1
    29   14   43 1
    30   15   16 1
    31   15   18 1
    32   16   17 1
    33   16   44 1
    34   16   45 1
    35   17   46 1
    36   17   47 1
    37   18   19 1
    38   18   48 1
    39   18   49 1
    40   19   20 1
    41   19   50 1
    42   19   51 1
    43   20   25 ar
    44   20   21 ar
    45   21   22 ar
    46   21   52 1
    47   22   23 ar
    48   22   53 1
    49   23   24 ar
    50   23   27 1
    51   24   25 ar
    52   24   26 1
    53   25   54 1
    54   28   29 1
    55   28   31 1
    56   29   30 ar
    57   31   55 1
    58   31   56 1
    59   31   57 1
    60   32   33 2
    61   32   34 am
    62   34   58 1
    63   34   59 1
@<TRIPOS>MOLECULE
CHEMBL1208801
   44    47     0     0     0
SMALL
USER_CHARGES

@<TRIPOS>ATOM
      1 C1         -0.3374    1.4695   -0.2310 C.3       1 <0>        -0.1584
      2 C2          0.0021   -0.0041    0.0020 C.3       1 <0>         0.1905
      3 H1         -0.9176   -0.5695    0.1523 H         1 <0>         0.1216
      4 C3          0.7349   -0.5465   -1.1979 C.ar      1 <0>        -0.0971
      5 C4          0.1090   -1.4452   -2.0416 C.ar      1 <0>        -0.0949
      6 C5          0.7806   -1.9431   -3.1422 C.ar      1 <0>        -0.1076
      7 C6          2.0794   -1.5419   -3.3996 C.ar      1 <0>        -0.0314
      8 C7          2.7052   -0.6424   -2.5549 C.ar      1 <0>        -0.1081
      9 C8          2.0307   -0.1409   -1.4577 C.ar      1 <0>        -0.1002
     10 Cl1         2.9238   -2.1672   -4.7815 Cl        1 <0>        -0.0665
     11 N1          0.8509   -0.1278    1.1896 N.pl3     1 <0>        -0.9853
     12 C9          2.0854    0.6578    1.3269 C.3       1 <0>         0.1903
     13 C10         2.1684    1.2372    2.7148 C.2       1 <0>        -0.0730
     14 C11         3.0357    2.1925    3.1094 C.2       1 <0>         0.0078
     15 N2          2.8161    2.4409    4.4087 N.2       1 <0>        -0.4811
     16 C12         1.8472    1.6774    4.8343 C.2       1 <0>         0.2023
     17 N3          1.4118    0.9194    3.8041 N.pl3     1 <0>        -0.4321
     18 C13         0.3125   -0.0522    3.8650 C.3       1 <0>        -0.3650
     19 S1          0.4468   -1.1582    2.4338 S.o2      1 <0>         2.6061
     20 O1         -0.8311   -1.6739    2.0870 O.2       1 <0>        -0.9121
     21 O2          1.5674   -2.0199    2.5794 O.2       1 <0>        -0.9265
     22 C14        -1.0285    0.6831    3.8204 C.3       1 <0>        -0.0792
     23 C15        -2.1673   -0.3210    4.0093 C.3       1 <0>        -0.1788
     24 C16        -3.1468   -0.5050    2.8485 C.3       1 <0>        -0.1386
     25 C17        -3.5891    0.2345    4.1128 C.3       1 <0>        -0.1769
     26 H2          0.5822    2.0349   -0.3812 H         1 <0>         0.0667
     27 H3         -0.9690    1.5615   -1.1146 H         1 <0>         0.0774
     28 H4         -0.8675    1.8618    0.6369 H         1 <0>         0.0648
     29 H5         -0.9047   -1.7586   -1.8404 H         1 <0>         0.1365
     30 H6          0.2917   -2.6454   -3.8011 H         1 <0>         0.1366
     31 H7          3.7192   -0.3291   -2.7551 H         1 <0>         0.1362
     32 H8          2.5174    0.5648   -0.8009 H         1 <0>         0.1365
     33 H9          2.9466    0.0133    1.1511 H         1 <0>         0.0998
     34 H10         2.0836    1.4664    0.5961 H         1 <0>         0.1173
     35 H11         3.7770    2.6727    2.4878 H         1 <0>         0.1798
     36 H12         1.4587    1.6548    5.8417 H         1 <0>         0.2104
     37 H13         0.3843   -0.6307    4.7860 H         1 <0>         0.1558
     38 H14        -1.0625    1.4254    4.6179 H         1 <0>         0.0948
     39 H15        -1.1385    1.1801    2.8565 H         1 <0>         0.0844
     40 H16        -1.9252   -1.1992    4.6080 H         1 <0>         0.1074
     41 H17        -2.9799    0.0894    1.9502 H         1 <0>         0.0943
     42 H18        -3.5493   -1.5043    2.6832 H         1 <0>         0.1019
     43 H19        -4.2826   -0.2784    4.7792 H         1 <0>         0.0984
     44 H20        -3.7132    1.3154    4.0463 H         1 <0>         0.0951
@<TRIPOS>BOND
     1    1    2 1
     2    1   26 1
     3    1   27 1
     4    1   28 1
     5    2    3 1
     6    2    4 1
     7    2   11 1
     8    4    9 ar
     9    4    5 ar
    10    5    6 ar
    11    5   29 1
    12    6    7 ar
    13    6   30 1
    14    7    8 ar
    15    7   10 1
    16    8    9 ar
    17    8   31 1
    18    9   32 1
    19   11   19 1
    20   11   12 1
    21   12   13 1
    22   12   33 1
    23   12   34 1
    24   13   17 1
    25   13   14 2
    26   14   15 1
    27   14   35 1
    28   15   16 2
    29   16   17 1
    30   16   36 1
    31   17   18 1
    32   18   19 1
    33   18   22 1
    34   18   37 1
    35   19   20 2
    36   19   21 2
    37   22   23 1
    38   22   38 1
    39   22   39 1
    40   23   25 1
    41   23   24 1
    42   23   40 1
    43   24   25 1
    44   24   41 1
    45   24   42 1
    46   25   43 1
    47   25   44 1
@<TRIPOS>MOLECULE
CHEMBL1208801
   45    48     0     0     0
SMALL
USER_CHARGES

@<TRIPOS>ATOM
      1 C1          0.3506    1.4783   -0.1460 C.3       1 <0>        -0.1605
      2 C2          0.0021   -0.0041    0.0020 C.3       1 <0>         0.1901
      3 H1          0.3403   -0.5467   -0.8807 H         1 <0>         0.1291
      4 C3          0.6835   -0.5605    1.2255 C.ar      1 <0>        -0.1076
      5 C4          1.7409   -1.4403    1.0875 C.ar      1 <0>        -0.0907
      6 C5          2.3663   -1.9510    2.2093 C.ar      1 <0>        -0.1030
      7 C6          1.9339   -1.5816    3.4705 C.ar      1 <0>        -0.0269
      8 C7          0.8756   -0.7011    3.6080 C.ar      1 <0>        -0.1074
      9 C8          0.2546   -0.1867    2.4855 C.ar      1 <0>        -0.1042
     10 Cl1         2.7185   -2.2231    4.8800 Cl        1 <0>        -0.0556
     11 N1         -1.4487   -0.1532    0.1407 N.pl3     1 <0>        -0.9832
     12 C9         -2.1968    0.6007    1.1566 C.3       1 <0>         0.1697
     13 C10        -3.4492    1.1730    0.5463 C.2       1 <0>         0.0118
     14 C11        -4.2392    2.1048    1.1190 C.2       1 <0>         0.0313
     15 N2         -5.2586    2.3541    0.2843 N.pl3     1 <0>        -0.4673
     16 C12        -5.1312    1.6136   -0.7827 C.cat     1 <0>         0.3050
     17 N3         -4.0095    0.8705   -0.6598 N.pl3     1 <0>        -0.3857
     18 C13        -3.4978   -0.0735   -1.6615 C.3       1 <0>        -0.3874
     19 S1         -2.3082   -1.1775   -0.8518 S.o2      1 <0>         2.6013
     20 O1         -1.3612   -1.6597   -1.7951 O.2       1 <0>        -0.8799
     21 O2         -2.9809   -2.0675    0.0284 O.2       1 <0>        -0.9039
     22 C14        -2.8005    0.6954   -2.7855 C.3       1 <0>        -0.0831
     23 C15        -2.3794   -0.2805   -3.8861 C.3       1 <0>        -0.1900
     24 C16        -0.8817   -0.4357   -4.1575 C.3       1 <0>        -0.1374
     25 C17        -1.7672    0.3102   -5.1577 C.3       1 <0>        -0.1693
     26 H2          1.4300    1.5893   -0.2492 H         1 <0>         0.0865
     27 H3         -0.1423    1.8808   -1.0310 H         1 <0>         0.0641
     28 H4          0.0123    2.0210    0.7367 H         1 <0>         0.0661
     29 H5          2.0781   -1.7288    0.1029 H         1 <0>         0.1389
     30 H6          3.1921   -2.6386    2.1013 H         1 <0>         0.1408
     31 H7          0.5374   -0.4127    4.5923 H         1 <0>         0.1381
     32 H8         -0.5684    0.5043    2.5926 H         1 <0>         0.1299
     33 H9         -2.4648   -0.0647    1.9773 H         1 <0>         0.1288
     34 H10        -1.5755    1.4116    1.5367 H         1 <0>         0.1431
     35 H11        -4.0788    2.5684    2.0812 H         1 <0>         0.2347
     36 H12        -5.8091    1.5973   -1.6233 H         1 <0>         0.2665
     37 H13        -4.3223   -0.6568   -2.0714 H         1 <0>         0.1818
     38 H14        -3.4857    1.4355   -3.1989 H         1 <0>         0.1003
     39 H15        -1.9186    1.1984   -2.3889 H         1 <0>         0.0937
     40 H16        -3.0052   -1.1665   -3.9934 H         1 <0>         0.1131
     41 H17        -0.1964    0.1574   -3.5520 H         1 <0>         0.0974
     42 H18        -0.5218   -1.4241   -4.4433 H         1 <0>         0.1078
     43 H19        -1.9898   -0.1874   -6.1016 H         1 <0>         0.1046
     44 H20        -1.6644    1.3941   -5.2103 H         1 <0>         0.0980
     45 H21        -5.9773    2.9846    0.4479 H         1 <0>         0.4708
@<TRIPOS>BOND
     1    1    2 1
     2    1   26 1
     3    1   27 1
     4    1   28 1
     5    2    3 1
     6    2    4 1
     7    2   11 1
     8    4    9 ar
     9    4    5 ar
    10    5    6 ar
    11    5   29 1
    12    6    7 ar
    13    6   30 1
    14    7    8 ar
    15    7   10 1
    16    8    9 ar
    17    8   31 1
    18    9   32 1
    19   11   19 1
    20   11   12 1
    21   12   13 1
    22   12   33 1
    23   12   34 1
    24   13   17 1
    25   13   14 2
    26   14   15 1
    27   14   35 1
    28   15   16 2
    29   15   45 1
    30   16   17 1
    31   16   36 1
    32   17   18 1
    33   18   19 1
    34   18   22 1
    35   18   37 1
    36   19   20 2
    37   19   21 2
    38   22   23 1
    39   22   38 1
    40   22   39 1
    41   23   25 1
    42   23   24 1
    43   23   40 1
    44   24   25 1
    45   24   41 1
    46   24   42 1
    47   25   43 1
    48   25   44 1
@<TRIPOS>MOLECULE
CHEMBL1208801
   44    47     0     0     0
SMALL
USER_CHARGES

@<TRIPOS>ATOM
      1 C1         -0.6386    1.3669   -0.2234 C.3       1 <0>        -0.1617
      2 C2          0.0021   -0.0041    0.0020 C.3       1 <0>         0.1881
      3 H1         -0.7790   -0.7527    0.1346 H         1 <0>         0.1206
      4 C3          0.8473   -0.3660   -1.1920 C.ar      1 <0>        -0.0957
      5 C4          1.7460    0.5504   -1.7056 C.ar      1 <0>        -0.0943
      6 C5          2.5215    0.2190   -2.8007 C.ar      1 <0>        -0.1072
      7 C6          2.3983   -1.0301   -3.3827 C.ar      1 <0>        -0.0291
      8 C7          1.4988   -1.9467   -2.8682 C.ar      1 <0>        -0.1083
      9 C8          0.7279   -1.6162   -1.7696 C.ar      1 <0>        -0.0945
     10 Cl1         3.3716   -1.4468   -4.7585 Cl        1 <0>        -0.0659
     11 N1          0.8436    0.0413    1.2004 N.pl3     1 <0>        -0.9822
     12 C9          1.9940    0.9517    1.2875 C.3       1 <0>         0.1863
     13 C10         3.1810    0.2193    1.8560 C.2       1 <0>        -0.0696
     14 C11         4.4512    0.6743    1.8536 C.2       1 <0>         0.0068
     15 N2          5.2220   -0.2444    2.4535 N.2       1 <0>        -0.4805
     16 C12         4.4794   -1.2504    2.8273 C.2       1 <0>         0.2011
     17 N3          3.2022   -1.0015    2.4636 N.pl3     1 <0>        -0.4311
     18 C13         2.0629   -1.9023    2.6798 C.3       1 <0>        -0.3548
     19 S1          0.5256   -0.9321    2.5136 S.o2      1 <0>         2.5991
     20 O1         -0.5484   -1.7673    2.1038 O.2       1 <0>        -0.9210
     21 O2          0.3797   -0.0391    3.6093 O.2       1 <0>        -0.9233
     22 C14         2.0853   -3.0212    1.6364 C.3       1 <0>        -0.0797
     23 C15         0.9713   -4.0248    1.9409 C.3       1 <0>        -0.1860
     24 C16         1.3860   -5.4526    2.3019 C.3       1 <0>        -0.1774
     25 C17         0.7515   -5.1613    0.9405 C.3       1 <0>        -0.1629
     26 H2          0.1424    2.1156   -0.3560 H         1 <0>         0.0667
     27 H3         -1.2647    1.3332   -1.1151 H         1 <0>         0.0775
     28 H4         -1.2500    1.6287    0.6401 H         1 <0>         0.0691
     29 H5          1.8418    1.5255   -1.2514 H         1 <0>         0.1367
     30 H6          3.2232    0.9351   -3.2021 H         1 <0>         0.1360
     31 H7          1.4020   -2.9218   -3.3223 H         1 <0>         0.1353
     32 H8          0.0291   -2.3334   -1.3649 H         1 <0>         0.1366
     33 H9          2.2393    1.3222    0.2922 H         1 <0>         0.1181
     34 H10         1.7428    1.7923    1.9345 H         1 <0>         0.1004
     35 H11         4.7881    1.6136    1.4405 H         1 <0>         0.1786
     36 H12         4.8277   -2.1342    3.3412 H         1 <0>         0.2095
     37 H13         2.1186   -2.3313    3.6803 H         1 <0>         0.1559
     38 H14         1.9304   -2.5963    0.6447 H         1 <0>         0.0872
     39 H15         3.0497   -3.5282    1.6679 H         1 <0>         0.0921
     40 H16         0.0921   -3.6148    2.4380 H         1 <0>         0.1309
     41 H17         2.4524   -5.6769    2.3225 H         1 <0>         0.0961
     42 H18         0.7797   -5.9822    3.0368 H         1 <0>         0.0992
     43 H19        -0.2722   -5.4993    0.7797 H         1 <0>         0.1015
     44 H20         1.4005   -5.1941    0.0654 H         1 <0>         0.0958
@<TRIPOS>BOND
     1    1    2 1
     2    1   26 1
     3    1   27 1
     4    1   28 1
     5    2    3 1
     6    2    4 1
     7    2   11 1
     8    4    9 ar
     9    4    5 ar
    10    5    6 ar
    11    5   29 1
    12    6    7 ar
    13    6   30 1
    14    7    8 ar
    15    7   10 1
    16    8    9 ar
    17    8   31 1
    18    9   32 1
    19   11   19 1
    20   11   12 1
    21   12   13 1
    22   12   33 1
    23   12   34 1
    24   13   17 1
    25   13   14 2
    26   14   15 1
    27   14   35 1
    28   15   16 2
    29   16   17 1
    30   16   36 1
    31   17   18 1
    32   18   19 1
    33   18   22 1
    34   18   37 1
    35   19   20 2
    36   19   21 2
    37   22   23 1
    38   22   38 1
    39   22   39 1
    40   23   25 1
    41   23   24 1
    42   23   40 1
    43   24   25 1
    44   24   41 1
    45   24   42 1
    46   25   43 1
    47   25   44 1
@<TRIPOS>MOLECULE
CHEMBL1208801
   45    48     0     0     0
SMALL
USER_CHARGES

@<TRIPOS>ATOM
      1 C1          0.4962    1.3833   -0.4126 C.3       1 <0>        -0.1648
      2 C2          0.0021   -0.0041    0.0020 C.3       1 <0>         0.1870
      3 H1          0.2892   -0.7334   -0.7555 H         1 <0>         0.1285
      4 C3          0.6193   -0.3829    1.3236 C.ar      1 <0>        -0.1047
      5 C4          0.6009    0.5124    2.3767 C.ar      1 <0>        -0.1025
      6 C5          1.1668    0.1655    3.5890 C.ar      1 <0>        -0.1081
      7 C6          1.7519   -1.0781    3.7484 C.ar      1 <0>        -0.0278
      8 C7          1.7701   -1.9737    2.6940 C.ar      1 <0>        -0.1047
      9 C8          1.1988   -1.6277    1.4839 C.ar      1 <0>        -0.0928
     10 Cl1         2.4635   -1.5143    5.2706 Cl        1 <0>        -0.0550
     11 N1         -1.4570    0.0160    0.1324 N.pl3     1 <0>        -0.9800
     12 C9         -2.1215    0.8969    1.1030 C.3       1 <0>         0.1664
     13 C10        -3.1956    0.1330    1.8319 C.2       1 <0>         0.0149
     14 C11        -3.8354    0.5559    2.9420 C.2       1 <0>         0.0300
     15 N2         -4.7258   -0.3840    3.2910 N.pl3     1 <0>        -0.4668
     16 C12        -4.6628   -1.3722    2.4412 C.cat     1 <0>         0.3039
     17 N3         -3.7135   -1.0901    1.5221 N.pl3     1 <0>        -0.3847
     18 C13        -3.3173   -1.9628    0.4097 C.3       1 <0>        -0.3788
     19 S1         -2.4203   -0.9537   -0.8189 S.o2      1 <0>         2.5961
     20 O1         -1.5156   -1.7603   -1.5607 O.2       1 <0>        -0.8888
     21 O2         -3.3102   -0.0612   -1.4752 O.2       1 <0>        -0.9009
     22 C14        -2.4074   -3.0782    0.9282 C.3       1 <0>        -0.0841
     23 C15        -2.0988   -4.0546   -0.2086 C.3       1 <0>        -0.1958
     24 C16        -2.5964   -5.4936   -0.0585 C.3       1 <0>        -0.1733
     25 C17        -1.1048   -5.1818    0.0786 C.3       1 <0>        -0.1563
     26 H2          1.5817    1.3684   -0.5096 H         1 <0>         0.0849
     27 H3          0.0497    1.6574   -1.3685 H         1 <0>         0.0734
     28 H4          0.2090    2.1126    0.3449 H         1 <0>         0.0675
     29 H5          0.1444    1.4832    2.2521 H         1 <0>         0.1361
     30 H6          1.1527    0.8651    4.4116 H         1 <0>         0.1383
     31 H7          2.2270   -2.9444    2.8178 H         1 <0>         0.1394
     32 H8          1.2087   -2.3286    0.6623 H         1 <0>         0.1397
     33 H9         -1.3879    1.2646    1.8205 H         1 <0>         0.1429
     34 H10        -2.5694    1.7412    0.5790 H         1 <0>         0.1299
     35 H11        -3.6606    1.4879    3.4591 H         1 <0>         0.2340
     36 H12        -5.2681   -2.2663    2.4681 H         1 <0>         0.2659
     37 H13        -4.2049   -2.3965   -0.0510 H         1 <0>         0.1822
     38 H14        -1.4777   -2.6461    1.2985 H         1 <0>         0.0964
     39 H15        -2.9087   -3.6094    1.7373 H         1 <0>         0.0980
     40 H16        -2.0963   -3.6244   -1.2101 H         1 <0>         0.1345
     41 H17        -3.1437   -5.7447    0.8501 H         1 <0>         0.0976
     42 H18        -2.9217   -6.0104   -0.9615 H         1 <0>         0.1049
     43 H19        -0.4487   -5.4934   -0.7342 H         1 <0>         0.1078
     44 H20        -0.6708   -5.2277    1.0774 H         1 <0>         0.0990
     45 H21        -5.3220   -0.3370    4.0547 H         1 <0>         0.4705
@<TRIPOS>BOND
     1    1    2 1
     2    1   26 1
     3    1   27 1
     4    1   28 1
     5    2    3 1
     6    2    4 1
     7    2   11 1
     8    4    9 ar
     9    4    5 ar
    10    5    6 ar
    11    5   29 1
    12    6    7 ar
    13    6   30 1
    14    7    8 ar
    15    7   10 1
    16    8    9 ar
    17    8   31 1
    18    9   32 1
    19   11   19 1
    20   11   12 1
    21   12   13 1
    22   12   33 1
    23   12   34 1
    24   13   17 1
    25   13   14 2
    26   14   15 1
    27   14   35 1
    28   15   16 2
    29   15   45 1
    30   16   17 1
    31   16   36 1
    32   17   18 1
    33   18   19 1
    34   18   22 1
    35   18   37 1
    36   19   20 2
    37   19   21 2
    38   22   23 1
    39   22   38 1
    40   22   39 1
    41   23   25 1
    42   23   24 1
    43   23   40 1
    44   24   25 1
    45   24   41 1
    46   24   42 1
    47   25   43 1
    48   25   44 1
@<TRIPOS>MOLECULE
CHEMBL539475
   77    81     0     0     0
SMALL
USER_CHARGES

@<TRIPOS>ATOM
      1 C1         -0.0184    1.5028    0.0103 C.3       1 <0>        -0.0734
      2 C2          0.0021   -0.0041    0.0020 C.2       1 <0>         0.0786
      3 C3          0.0080   -0.8179   -1.1355 C.2       1 <0>        -0.2700
      4 C4          0.0279   -2.1072   -0.7249 C.2       1 <0>         0.0904
      5 N1          0.0343   -2.1090    0.6245 N.pl3     1 <0>        -0.3714
      6 N2          0.0231   -0.7768    1.0576 N.2       1 <0>        -0.2988
      7 C5          0.0548   -3.2948    1.4847 C.3       1 <0>         0.1281
      8 C6          1.5043   -3.6875    1.7773 C.3       1 <0>         0.1961
      9 C7          1.5277   -4.9758    2.5589 C.ar      1 <0>        -0.1047
     10 C8          1.2871   -4.9629    3.9201 C.ar      1 <0>        -0.1031
     11 C9          1.3086   -6.1446    4.6370 C.ar      1 <0>        -0.1203
     12 C10         1.5701   -7.3393    3.9926 C.ar      1 <0>        -0.1114
     13 C11         1.8098   -7.3523    2.6313 C.ar      1 <0>        -0.1156
     14 C12         1.7841   -6.1711    1.9136 C.ar      1 <0>        -0.0983
     15 N3          2.1484   -2.6298    2.5600 N.am      1 <0>        -0.7258
     16 C13         3.4872   -2.4804    2.5178 C.2       1 <0>         0.7127
     17 O1          4.1604   -3.2236    1.8303 O.2       1 <0>        -0.5816
     18 N4          4.0797   -1.5073    3.2379 N.am      1 <0>        -0.7439
     19 C14         5.5349   -1.3450    3.1921 C.3       1 <0>         0.1582
     20 C15         6.1871   -2.2818    4.2130 C.3       1 <0>        -0.1601
     21 C16         7.6996   -2.0503    4.2162 C.3       1 <0>        -0.0027
     22 N5          7.9842   -0.6564    4.5774 N.4       1 <0>        -0.3830
     23 C17         7.4231    0.2452    3.5640 C.3       1 <0>        -0.0020
     24 C18         5.8999    0.1020    3.5358 C.3       1 <0>        -0.1542
     25 C19         9.4378   -0.4592    4.6551 C.3       1 <0>         0.0791
     26 C20         9.7300    0.9358    5.1445 C.2       1 <0>        -0.2304
     27 C21         9.8922    2.0837    4.3429 C.2       1 <0>        -0.1726
     28 C22        10.1395    3.1216    5.1676 C.2       1 <0>         0.0095
     29 N6         10.1362    2.6565    6.4516 N.pl3     1 <0>        -0.3848
     30 C23         9.8785    1.3155    6.4299 C.2       1 <0>         0.0383
     31 C24        10.3558    3.4283    7.6012 C.ar      1 <0>         0.1508
     32 C25        10.3323    2.8316    8.8545 C.ar      1 <0>        -0.1353
     33 C26        10.5495    3.5945    9.9853 C.ar      1 <0>        -0.0388
     34 C27        10.7901    4.9512    9.8699 C.ar      1 <0>        -0.1814
     35 C28        10.8137    5.5485    8.6230 C.ar      1 <0>        -0.0372
     36 C29        10.6029    4.7897    7.4882 C.ar      1 <0>        -0.1308
     37 C30        11.0267    5.7807   11.1056 C.3       1 <0>         0.5085
     38 F1         12.3943    5.8003   11.3994 F         1 <0>        -0.1706
     39 F2         10.5788    7.0873   10.8830 F         1 <0>        -0.1720
     40 F3         10.3265    5.2247   12.1816 F         1 <0>        -0.1728
     41 C31         0.0401   -3.3230   -1.6152 C.3       1 <0>        -0.0980
     42 H1          1.0042    1.8801    0.0026 H         1 <0>         0.0736
     43 H2         -0.5455    1.8639   -0.8728 H         1 <0>         0.0792
     44 H3         -0.5286    1.8543    0.9071 H         1 <0>         0.0719
     45 H4         -0.0021   -0.4776   -2.1604 H         1 <0>         0.1467
     46 H5         -0.4577   -3.0734    2.4209 H         1 <0>         0.1033
     47 H6         -0.4500   -4.1185    0.9800 H         1 <0>         0.1131
     48 H7          2.0408   -3.8225    0.8381 H         1 <0>         0.1031
     49 H8          1.0827   -4.0295    4.4235 H         1 <0>         0.1164
     50 H9          1.1213   -6.1344    5.7006 H         1 <0>         0.1231
     51 H10         1.5876   -8.2624    4.5529 H         1 <0>         0.1248
     52 H11         2.0145   -8.2856    2.1279 H         1 <0>         0.1266
     53 H12         1.9677   -6.1817    0.8494 H         1 <0>         0.1239
     54 H13         1.6112   -2.0369    3.1085 H         1 <0>         0.4019
     55 H14         3.5426   -0.9144    3.7864 H         1 <0>         0.4011
     56 H15         5.8971   -1.5847    2.1923 H         1 <0>         0.1044
     57 H16         5.7852   -2.0755    5.2050 H         1 <0>         0.0877
     58 H17         5.9778   -3.3169    3.9429 H         1 <0>         0.1168
     59 H18         8.1671   -2.7159    4.9419 H         1 <0>         0.1332
     60 H19         8.1005   -2.2572    3.2239 H         1 <0>         0.1323
     61 H20         7.6864    1.2743    3.8082 H         1 <0>         0.1390
     62 H21         7.8298   -0.0106    2.5856 H         1 <0>         0.1308
     63 H22         5.4854    0.7709    2.7815 H         1 <0>         0.1171
     64 H23         5.4921    0.3578    4.5137 H         1 <0>         0.0912
     65 H24         9.8663   -1.1842    5.3471 H         1 <0>         0.1333
     66 H25         9.8765   -0.5969    3.6668 H         1 <0>         0.1361
     67 H26         9.8302    2.1245    3.2655 H         1 <0>         0.1543
     68 H27        10.3110    4.1441    4.8648 H         1 <0>         0.1785
     69 H28         9.8079    0.6701    7.2930 H         1 <0>         0.1762
     70 H29        10.1440    1.7720    8.9452 H         1 <0>         0.1427
     71 H30        10.5309    3.1309   10.9605 H         1 <0>         0.1516
     72 H31        11.0012    6.6085    8.5360 H         1 <0>         0.1527
     73 H32        10.6262    5.2558    6.5143 H         1 <0>         0.1464
     74 H33         1.0706   -3.6023   -1.8347 H         1 <0>         0.0815
     75 H34        -0.4602   -4.1488   -1.1093 H         1 <0>         0.0714
     76 H35        -0.4812   -3.0975   -2.5455 H         1 <0>         0.0892
     77 H36         7.5705   -0.4513    5.4745 H         1 <0>         0.4196
@<TRIPOS>BOND
     1    1    2 1
     2    1   42 1
     3    1   43 1
     4    1   44 1
     5    2    6 2
     6    2    3 1
     7    3    4 2
     8    3   45 1
     9    4    5 1
    10    4   41 1
    11    5    6 1
    12    5    7 1
    13    7    8 1
    14    7   46 1
    15    7   47 1
    16    8    9 1
    17    8   15 1
    18    8   48 1
    19    9   14 ar
    20    9   10 ar
    21   10   11 ar
    22   10   49 1
    23   11   12 ar
    24   11   50 1
    25   12   13 ar
    26   12   51 1
    27   13   14 ar
    28   13   52 1
    29   14   53 1
    30   15   16 am
    31   15   54 1
    32   16   17 2
    33   16   18 am
    34   18   19 1
    35   18   55 1
    36   19   24 1
    37   19   20 1
    38   19   56 1
    39   20   21 1
    40   20   57 1
    41   20   58 1
    42   21   22 1
    43   21   59 1
    44   21   60 1
    45   22   23 1
    46   22   25 1
    47   22   77 1
    48   23   24 1
    49   23   61 1
    50   23   62 1
    51   24   63 1
    52   24   64 1
    53   25   26 1
    54   25   65 1
    55   25   66 1
    56   26   30 2
    57   26   27 1
    58   27   28 2
    59   27   67 1
    60   28   29 1
    61   28   68 1
    62   29   30 1
    63   29   31 1
    64   30   69 1
    65   31   36 ar
    66   31   32 ar
    67   32   33 ar
    68   32   70 1
    69   33   34 ar
    70   33   71 1
    71   34   35 ar
    72   34   37 1
    73   35   36 ar
    74   35   72 1
    75   36   73 1
    76   37   38 1
    77   37   39 1
    78   37   40 1
    79   41   74 1
    80   41   75 1
    81   41   76 1
@<TRIPOS>MOLECULE
CHEMBL539475
   77    81     0     0     0
SMALL
USER_CHARGES

@<TRIPOS>ATOM
      1 C1         -0.0184    1.5028    0.0103 C.3       1 <0>        -0.0760
      2 C2          0.0021   -0.0041    0.0020 C.2       1 <0>         0.0779
      3 C3          0.0080   -0.8179   -1.1355 C.2       1 <0>        -0.2672
      4 C4          0.0279   -2.1072   -0.7249 C.2       1 <0>         0.0805
      5 N1          0.0343   -2.1090    0.6245 N.pl3     1 <0>        -0.3689
      6 N2          0.0231   -0.7768    1.0576 N.2       1 <0>        -0.2881
      7 C5          0.0548   -3.2948    1.4847 C.3       1 <0>         0.1282
      8 C6          1.5043   -3.6875    1.7773 C.3       1 <0>         0.1950
      9 C7          1.5266   -4.8304    2.7593 C.ar      1 <0>        -0.1057
     10 C8          1.3068   -6.1228    2.3209 C.ar      1 <0>        -0.1049
     11 C9          1.3273   -7.1711    3.2217 C.ar      1 <0>        -0.1202
     12 C10         1.5680   -6.9271    4.5609 C.ar      1 <0>        -0.1106
     13 C11         1.7887   -5.6348    4.9992 C.ar      1 <0>        -0.1151
     14 C12         1.7725   -4.5870    4.0977 C.ar      1 <0>        -0.0958
     15 N3          2.1592   -4.0997    0.5333 N.am      1 <0>        -0.7346
     16 C13         3.4984   -4.0065    0.4139 C.2       1 <0>         0.7114
     17 O1          4.1630   -3.5803    1.3385 O.2       1 <0>        -0.5740
     18 N4          4.1009   -4.3857   -0.7305 N.am      1 <0>        -0.7445
     19 C14         5.5566   -4.2844   -0.8604 C.3       1 <0>         0.1572
     20 C15         5.9331   -2.8710   -1.3139 C.3       1 <0>        -0.1604
     21 C16         7.4469   -2.7949   -1.5241 C.3       1 <0>        -0.0029
     22 N5          7.8513   -3.7636   -2.5501 N.4       1 <0>        -0.3828
     23 C17         7.5586   -5.1267   -2.0911 C.3       1 <0>        -0.0024
     24 C18         6.0492   -5.2925   -1.9026 C.3       1 <0>        -0.1540
     25 C19         9.2923   -3.6328   -2.8040 C.3       1 <0>         0.0790
     26 C20         9.6861   -4.5391   -3.9418 C.2       1 <0>        -0.2304
     27 C21        10.1045   -5.8805   -3.8327 C.2       1 <0>        -0.1728
     28 C22        10.3615   -6.3270   -5.0790 C.2       1 <0>         0.0095
     29 N6         10.1169   -5.3090   -5.9557 N.pl3     1 <0>        -0.3847
     30 C23         9.6972   -4.2168   -5.2512 C.2       1 <0>         0.0385
     31 C24        10.2667   -5.3755   -7.3481 C.ar      1 <0>         0.1506
     32 C25         9.9899   -4.2632   -8.1314 C.ar      1 <0>        -0.1351
     33 C26        10.1389   -4.3316   -9.5028 C.ar      1 <0>        -0.0388
     34 C27        10.5633   -5.5065  -10.0958 C.ar      1 <0>        -0.1813
     35 C28        10.8393   -6.6161   -9.3183 C.ar      1 <0>        -0.0373
     36 C29        10.6976   -6.5520   -7.9459 C.ar      1 <0>        -0.1308
     37 C30        10.7248   -5.5778  -11.5924 C.3       1 <0>         0.5085
     38 F1         12.0282   -5.2059  -11.9390 F         1 <0>        -0.1706
     39 F2         10.4822   -6.8856  -12.0259 F         1 <0>        -0.1720
     40 F3          9.8141   -4.7080  -12.2018 F         1 <0>        -0.1727
     41 C31         0.0401   -3.3230   -1.6152 C.3       1 <0>        -0.0955
     42 H1          1.0042    1.8801    0.0026 H         1 <0>         0.0761
     43 H2         -0.5455    1.8639   -0.8728 H         1 <0>         0.0790
     44 H3         -0.5286    1.8543    0.9071 H         1 <0>         0.0748
     45 H4         -0.0021   -0.4776   -2.1604 H         1 <0>         0.1457
     46 H5         -0.4577   -3.0734    2.4209 H         1 <0>         0.1180
     47 H6         -0.4500   -4.1185    0.9800 H         1 <0>         0.1001
     48 H7          2.0335   -2.8340    2.2010 H         1 <0>         0.1092
     49 H8          1.1188   -6.3135    1.2746 H         1 <0>         0.1148
     50 H9          1.1549   -8.1808    2.8793 H         1 <0>         0.1236
     51 H10         1.5833   -7.7461    5.2648 H         1 <0>         0.1253
     52 H11         1.9764   -5.4441    6.0455 H         1 <0>         0.1270
     53 H12         1.9486   -3.5777    4.4395 H         1 <0>         0.1249
     54 H13         1.6290   -4.4397   -0.2043 H         1 <0>         0.3943
     55 H14         3.5707   -4.7257   -1.4682 H         1 <0>         0.3991
     56 H15         6.0240   -4.4965    0.1012 H         1 <0>         0.1058
     57 H16         5.4237   -2.6412   -2.2498 H         1 <0>         0.0883
     58 H17         5.6351   -2.1522   -0.5505 H         1 <0>         0.1168
     59 H18         7.7184   -1.7898   -1.8469 H         1 <0>         0.1338
     60 H19         7.9553   -3.0246   -0.5877 H         1 <0>         0.1325
     61 H20         7.9127   -5.8431   -2.8324 H         1 <0>         0.1392
     62 H21         8.0647   -5.3067   -1.1426 H         1 <0>         0.1310
     63 H22         5.8341   -6.3046   -1.5601 H         1 <0>         0.1171
     64 H23         5.5422   -5.1130   -2.8507 H         1 <0>         0.0914
     65 H24         9.5229   -2.6001   -3.0656 H         1 <0>         0.1335
     66 H25         9.8460   -3.9130   -1.9080 H         1 <0>         0.1361
     67 H26        10.2021   -6.4470   -2.9184 H         1 <0>         0.1542
     68 H27        10.7023   -7.3184   -5.3387 H         1 <0>         0.1784
     69 H28         9.4236   -3.2598   -5.6702 H         1 <0>         0.1763
     70 H29         9.6581   -3.3454   -7.6688 H         1 <0>         0.1428
     71 H30         9.9234   -3.4667  -10.1127 H         1 <0>         0.1518
     72 H31        11.1699   -7.5326   -9.7843 H         1 <0>         0.1527
     73 H32        10.9180   -7.4176   -7.3387 H         1 <0>         0.1463
     74 H33         1.0706   -3.6023   -1.8347 H         1 <0>         0.0701
     75 H34        -0.4602   -4.1488   -1.1093 H         1 <0>         0.0718
     76 H35        -0.4812   -3.0975   -2.5455 H         1 <0>         0.0924
     77 H36         7.3437   -3.5806   -3.4027 H         1 <0>         0.4197
@<TRIPOS>BOND
     1    1    2 1
     2    1   42 1
     3    1   43 1
     4    1   44 1
     5    2    6 2
     6    2    3 1
     7    3    4 2
     8    3   45 1
     9    4    5 1
    10    4   41 1
    11    5    6 1
    12    5    7 1
    13    7    8 1
    14    7   46 1
    15    7   47 1
    16    8    9 1
    17    8   15 1
    18    8   48 1
    19    9   14 ar
    20    9   10 ar
    21   10   11 ar
    22   10   49 1
    23   11   12 ar
    24   11   50 1
    25   12   13 ar
    26   12   51 1
    27   13   14 ar
    28   13   52 1
    29   14   53 1
    30   15   16 am
    31   15   54 1
    32   16   17 2
    33   16   18 am
    34   18   19 1
    35   18   55 1
    36   19   24 1
    37   19   20 1
    38   19   56 1
    39   20   21 1
    40   20   57 1
    41   20   58 1
    42   21   22 1
    43   21   59 1
    44   21   60 1
    45   22   23 1
    46   22   25 1
    47   22   77 1
    48   23   24 1
    49   23   61 1
    50   23   62 1
    51   24   63 1
    52   24   64 1
    53   25   26 1
    54   25   65 1
    55   25   66 1
    56   26   30 2
    57   26   27 1
    58   27   28 2
    59   27   67 1
    60   28   29 1
    61   28   68 1
    62   29   30 1
    63   29   31 1
    64   30   69 1
    65   31   36 ar
    66   31   32 ar
    67   32   33 ar
    68   32   70 1
    69   33   34 ar
    70   33   71 1
    71   34   35 ar
    72   34   37 1
    73   35   36 ar
    74   35   72 1
    75   36   73 1
    76   37   38 1
    77   37   39 1
    78   37   40 1
    79   41   74 1
    80   41   75 1
    81   41   76 1
@<TRIPOS>MOLECULE
CHEMBL1172847
   43    45     0     0     0
SMALL
USER_CHARGES

@<TRIPOS>ATOM
      1 C1         -0.0184    1.5028    0.0103 C.3       1 <0>        -0.1302
      2 C2          0.0021   -0.0041    0.0020 C.2       1 <0>        -0.0745
      3 C3          1.1707   -0.6578   -0.0127 C.2       1 <0>        -0.0880
      4 C4          1.1908   -2.1397   -0.0208 C.ar      1 <0>        -0.0294
      5 C5          0.6950   -2.8501    1.0727 C.ar      1 <0>        -0.1029
      6 C6          0.7137   -4.2272    1.0650 C.ar      1 <0>        -0.1053
      7 C7          1.2285   -4.9116   -0.0360 C.ar      1 <0>        -0.0462
      8 C8          1.7242   -4.2014   -1.1293 C.ar      1 <0>        -0.1053
      9 C9          1.7003   -2.8244   -1.1244 C.ar      1 <0>        -0.1046
     10 C10         1.2491   -6.3941   -0.0439 C.ar      1 <0>        -0.0363
     11 C11         0.7490   -7.1051    1.0460 C.ar      1 <0>        -0.1027
     12 C12         0.7680   -8.4848    1.0378 C.ar      1 <0>        -0.1261
     13 C13         1.2845   -9.1673   -0.0534 C.ar      1 <0>         0.0816
     14 C14         1.7859   -8.4623   -1.1448 C.ar      1 <0>         0.0850
     15 C15         1.7633   -7.0793   -1.1437 C.ar      1 <0>        -0.1227
     16 O1          2.2928   -9.1335   -2.2134 O.3       1 <0>        -0.4866
     17 O2          1.3019  -10.5267   -0.0575 O.3       1 <0>        -0.4874
     18 C16         2.4446    0.1010   -0.0207 C.ar      1 <0>         0.0150
     19 C17         3.3079    0.0434   -1.1190 C.ar      1 <0>        -0.1654
     20 C18         4.4832    0.7651   -1.0849 C.ar      1 <0>         0.1026
     21 N1          4.7957    1.5013   -0.0356 N.ar      1 <0>        -0.4877
     22 C19         4.0094    1.5831    1.0206 C.ar      1 <0>         0.1009
     23 C20         2.8126    0.8983    1.0673 C.ar      1 <0>        -0.1636
     24 C21        -1.2926   -0.7753    0.0102 C.3       1 <0>        -0.1224
     25 H1          1.0042    1.8801    0.0026 H         1 <0>         0.0689
     26 H2         -0.5455    1.8639   -0.8728 H         1 <0>         0.0724
     27 H3         -0.5286    1.8543    0.9071 H         1 <0>         0.0742
     28 H4          0.2967   -2.3202    1.9254 H         1 <0>         0.1262
     29 H5          0.3302   -4.7772    1.9117 H         1 <0>         0.1286
     30 H6          2.1231   -4.7315   -1.9816 H         1 <0>         0.1273
     31 H7          2.0801   -2.2746   -1.9728 H         1 <0>         0.1248
     32 H8          0.3468   -6.5759    1.8972 H         1 <0>         0.1342
     33 H9          0.3802   -9.0342    1.8828 H         1 <0>         0.1371
     34 H10         2.1473   -6.5313   -1.9914 H         1 <0>         0.1369
     35 H11         1.6390   -9.3370   -2.8962 H         1 <0>         0.3886
     36 H12         0.5063  -10.9291   -0.4319 H         1 <0>         0.3886
     37 H13         3.0586   -0.5575   -1.9811 H         1 <0>         0.1336
     38 H14         5.1567    0.7267   -1.9283 H         1 <0>         0.1566
     39 H15         4.3044    2.1980    1.8580 H         1 <0>         0.1569
     40 H16         2.1715    0.9737    1.9331 H         1 <0>         0.1349
     41 H17        -2.1306   -0.0783    0.0220 H         1 <0>         0.0662
     42 H18        -1.3504   -1.3978   -0.8826 H         1 <0>         0.0716
     43 H19        -1.3334   -1.4074    0.8973 H         1 <0>         0.0741
@<TRIPOS>BOND
     1    1    2 1
     2    1   25 1
     3    1   26 1
     4    1   27 1
     5    2    3 2
     6    2   24 1
     7    3    4 1
     8    3   18 1
     9    4    9 ar
    10    4    5 ar
    11    5    6 ar
    12    5   28 1
    13    6    7 ar
    14    6   29 1
    15    7    8 ar
    16    7   10 1
    17    8    9 ar
    18    8   30 1
    19    9   31 1
    20   10   15 ar
    21   10   11 ar
    22   11   12 ar
    23   11   32 1
    24   12   13 ar
    25   12   33 1
    26   13   14 ar
    27   13   17 1
    28   14   15 ar
    29   14   16 1
    30   15   34 1
    31   16   35 1
    32   17   36 1
    33   18   23 ar
    34   18   19 ar
    35   19   20 ar
    36   19   37 1
    37   20   21 ar
    38   20   38 1
    39   21   22 ar
    40   22   23 ar
    41   22   39 1
    42   23   40 1
    43   24   41 1
    44   24   42 1
    45   24   43 1
@<TRIPOS>MOLECULE
CHEMBL98745
   35    38     0     0     0
SMALL
USER_CHARGES

@<TRIPOS>ATOM
      1 C1         -0.0168    1.3860    0.0097 C.ar      1 <0>        -0.1083
      2 C2          1.1752    2.0851    0.0020 C.ar      1 <0>         0.0109
      3 C3          2.4123    1.3994   -0.0042 C.ar      1 <0>        -0.1576
      4 C4          2.4193    0.0019   -0.0197 C.ar      1 <0>         0.2021
      5 C5          1.2143   -0.6915   -0.0157 C.ar      1 <0>        -0.0070
      6 C6          0.0021   -0.0041    0.0020 C.ar      1 <0>         0.0873
      7 O1         -1.0152   -0.9128    0.0080 O.3       1 <0>        -0.2999
      8 C7         -0.4256   -2.1530   -0.4242 C.3       1 <0>         0.2106
      9 O2          0.9530   -2.0333   -0.0266 O.3       1 <0>        -0.2951
     10 O3          3.5961   -0.6747   -0.0391 O.3       1 <0>        -0.4628
     11 C8          3.6591    2.1747    0.0186 C.2       1 <0>         0.5765
     12 O4          4.7202    1.6072   -0.1596 O.2       1 <0>        -0.5070
     13 N1          3.6463    3.5048    0.2331 N.am      1 <0>        -0.7149
     14 C9          2.4288    4.2001    0.6287 C.3       1 <0>         0.1873
     15 H1          2.3264    4.0401    1.7020 H         1 <0>         0.1010
     16 C10         1.2258    3.5677   -0.0028 C.2       1 <0>        -0.0932
     17 C11         0.2391    4.2504   -0.5501 C.2       1 <0>        -0.1329
     18 C12         0.2837    5.7550   -0.6211 C.3       1 <0>         0.1033
     19 H2         -0.1247    6.1801    0.2957 H         1 <0>         0.0958
     20 C13         1.7519    6.1737   -0.7792 C.3       1 <0>         0.0874
     21 H3          2.1695    5.7164   -1.6762 H         1 <0>         0.0774
     22 C14         2.5177    5.6943    0.4328 C.3       1 <0>         0.1191
     23 H4          3.5642    5.9747    0.3133 H         1 <0>         0.0829
     24 O5          1.9926    6.3471    1.5904 O.3       1 <0>        -0.5553
     25 O6          1.8384    7.5966   -0.8796 O.3       1 <0>        -0.5589
     26 O7         -0.4739    6.2092   -1.7444 O.3       1 <0>        -0.5592
     27 H5         -0.9574    1.9164    0.0260 H         1 <0>         0.1502
     28 H6         -0.8971   -2.9970    0.0792 H         1 <0>         0.1394
     29 H7         -0.5048   -2.2582   -1.5062 H         1 <0>         0.0914
     30 H8          3.9460   -0.8805    0.8386 H         1 <0>         0.3998
     31 H9          4.4664    4.0108    0.1220 H         1 <0>         0.4109
     32 H10        -0.6134    3.7236   -0.9529 H         1 <0>         0.1353
     33 H11         2.0148    7.3126    1.5414 H         1 <0>         0.3970
     34 H12         1.3553    7.9680   -1.6305 H         1 <0>         0.3974
     35 H13        -1.4066    5.9553   -1.7183 H         1 <0>         0.3890
@<TRIPOS>BOND
     1    1    6 ar
     2    1    2 ar
     3    1   27 1
     4    2   16 1
     5    2    3 ar
     6    3    4 ar
     7    3   11 1
     8    4    5 ar
     9    4   10 1
    10    5    9 1
    11    5    6 ar
    12    6    7 1
    13    7    8 1
    14    8    9 1
    15    8   28 1
    16    8   29 1
    17   10   30 1
    18   11   12 2
    19   11   13 am
    20   13   14 1
    21   13   31 1
    22   14   15 1
    23   14   22 1
    24   14   16 1
    25   16   17 2
    26   17   18 1
    27   17   32 1
    28   18   19 1
    29   18   20 1
    30   18   26 1
    31   20   21 1
    32   20   22 1
    33   20   25 1
    34   22   23 1
    35   22   24 1
    36   24   33 1
    37   25   34 1
    38   26   35 1
@<TRIPOS>MOLECULE
CHEMBL1078189
   73    76     0     0     0
SMALL
USER_CHARGES

@<TRIPOS>ATOM
      1 C1         -0.0187    1.5258    0.0104 C.3       1 <0>        -0.1544
      2 C2          0.0021   -0.0041    0.0020 C.3       1 <0>        -0.1260
      3 C3          0.7182   -0.4975   -1.2568 C.3       1 <0>        -0.1213
      4 C4          0.7390   -2.0273   -1.2652 C.3       1 <0>        -0.1203
      5 C5          1.4551   -2.5207   -2.5240 C.3       1 <0>        -0.1189
      6 C6          1.4758   -4.0506   -2.5324 C.3       1 <0>        -0.1152
      7 C7          2.1920   -4.5440   -3.7912 C.3       1 <0>        -0.1140
      8 C8          2.2127   -6.0738   -3.7996 C.3       1 <0>         0.2270
      9 O1          3.0953   -6.5710   -2.7705 O.3       1 <0>        -0.3682
     10 C9          3.4385   -7.9055   -3.1988 C.3       1 <0>         0.0556
     11 H1          2.7809   -8.6357   -2.7271 H         1 <0>         0.0837
     12 C10         3.2256   -7.9000   -4.7257 C.3       1 <0>         0.0725
     13 O2          2.7798   -6.5628   -5.0344 O.3       1 <0>        -0.3684
     14 C11         2.1557   -8.9212   -5.1174 C.3       1 <0>        -0.1640
     15 C12         4.5406   -8.2021   -5.4472 C.3       1 <0>        -0.1460
     16 C13         4.8995   -8.2123   -2.8642 C.3       1 <0>        -0.1102
     17 C14         5.0752   -8.2622   -1.3451 C.3       1 <0>        -0.0831
     18 C15         6.5143   -8.5645   -1.0155 C.2       1 <0>        -0.0979
     19 C16         7.3487   -7.5858   -0.7661 C.2       1 <0>        -0.1676
     20 C17         8.7878   -7.8881   -0.4365 C.3       1 <0>         0.0944
     21 O3          9.6398   -7.0047   -1.1685 O.3       1 <0>        -0.3206
     22 C18        10.9762   -7.1453   -0.9847 C.ar      1 <0>         0.2192
     23 C19        11.6325   -6.4292    0.0249 C.ar      1 <0>        -0.1935
     24 C20        10.8931   -5.5183    0.8989 C.2       1 <0>         0.0113
     25 C21        11.5822   -4.8504    1.8614 C.2       1 <0>        -0.2475
     26 C22        12.9711   -5.0474    1.9934 C.2       1 <0>         0.5117
     27 O4         13.5756   -4.4425    2.8607 O.2       1 <0>        -0.4551
     28 O5         13.6457   -5.8840    1.1896 O.3       1 <0>        -0.2669
     29 C23        13.0230   -6.5802    0.2114 C.ar      1 <0>         0.1851
     30 C24        13.7416   -7.4360   -0.6028 C.ar      1 <0>        -0.1348
     31 C25        13.1005   -8.1505   -1.6072 C.ar      1 <0>         0.1228
     32 C26        11.7129   -8.0084   -1.7942 C.ar      1 <0>        -0.1722
     33 C27        11.3740   -8.8975   -2.9137 C.2       1 <0>        -0.1894
     34 C28        12.5204   -9.4780   -3.2889 C.2       1 <0>         0.0134
     35 O6         13.5373   -9.0339   -2.5279 O.3       1 <0>        -0.1850
     36 C29         6.9937   -9.9926   -0.9728 C.3       1 <0>        -0.1307
     37 H2          1.0039    1.9031    0.0027 H         1 <0>         0.0535
     38 H3         -0.5459    1.8868   -0.8726 H         1 <0>         0.0533
     39 H4         -0.5289    1.8773    0.9072 H         1 <0>         0.0534
     40 H5          0.5293   -0.3651    0.8851 H         1 <0>         0.0604
     41 H6         -1.0205   -0.3814    0.0098 H         1 <0>         0.0602
     42 H7          0.1910   -0.1364   -2.1398 H         1 <0>         0.0608
     43 H8          1.7408   -0.1202   -1.2645 H         1 <0>         0.0610
     44 H9          1.2661   -2.3884   -0.3821 H         1 <0>         0.0616
     45 H10        -0.2836   -2.4046   -1.2575 H         1 <0>         0.0609
     46 H11         0.9279   -2.1597   -3.4071 H         1 <0>         0.0621
     47 H12         2.4777   -2.1435   -2.5317 H         1 <0>         0.0629
     48 H13         2.0030   -4.4117   -1.6494 H         1 <0>         0.0702
     49 H14         0.4533   -4.4279   -2.5247 H         1 <0>         0.0622
     50 H15         1.6648   -4.1829   -4.6743 H         1 <0>         0.0834
     51 H16         3.2146   -4.1667   -3.7990 H         1 <0>         0.0789
     52 H17         1.2057   -6.4675   -3.6618 H         1 <0>         0.0718
     53 H18         1.2157   -8.6690   -4.6266 H         1 <0>         0.0603
     54 H19         2.0168   -8.9054   -6.1984 H         1 <0>         0.0709
     55 H20         2.4724   -9.9166   -4.8063 H         1 <0>         0.0725
     56 H21         4.9050   -9.1832   -5.1427 H         1 <0>         0.0754
     57 H22         4.3740   -8.1947   -6.5244 H         1 <0>         0.0659
     58 H23         5.2795   -7.4437   -5.1886 H         1 <0>         0.0699
     59 H24         5.1761   -9.1752   -3.2937 H         1 <0>         0.0822
     60 H25         5.5387   -7.4326   -3.2784 H         1 <0>         0.0793
     61 H26         4.7986   -7.2993   -0.9156 H         1 <0>         0.0791
     62 H27         4.4361   -9.0419   -0.9308 H         1 <0>         0.0716
     63 H28         7.0052   -6.5623   -0.7967 H         1 <0>         0.1225
     64 H29         8.9527   -7.7494    0.6320 H         1 <0>         0.0665
     65 H30         9.0139   -8.9191   -0.7083 H         1 <0>         0.0713
     66 H31         9.8284   -5.3800    0.7822 H         1 <0>         0.1562
     67 H32        11.0666   -4.1701    2.5231 H         1 <0>         0.1681
     68 H33        14.8058   -7.5494   -0.4575 H         1 <0>         0.1578
     69 H34        10.3966   -9.0519   -3.3466 H         1 <0>         0.1644
     70 H35        12.6168  -10.1929   -4.0926 H         1 <0>         0.2162
     71 H36         7.3484  -10.2864   -1.9607 H         1 <0>         0.0727
     72 H37         7.8076  -10.0813   -0.2532 H         1 <0>         0.0659
     73 H38         6.1717  -10.6429   -0.6737 H         1 <0>         0.0690
@<TRIPOS>BOND
     1    1    2 1
     2    1   37 1
     3    1   38 1
     4    1   39 1
     5    2    3 1
     6    2   40 1
     7    2   41 1
     8    3    4 1
     9    3   42 1
    10    3   43 1
    11    4    5 1
    12    4   44 1
    13    4   45 1
    14    5    6 1
    15    5   46 1
    16    5   47 1
    17    6    7 1
    18    6   48 1
    19    6   49 1
    20    7    8 1
    21    7   50 1
    22    7   51 1
    23    8   13 1
    24    8    9 1
    25    8   52 1
    26    9   10 1
    27   10   11 1
    28   10   12 1
    29   10   16 1
    30   12   13 1
    31   12   14 1
    32   12   15 1
    33   14   53 1
    34   14   54 1
    35   14   55 1
    36   15   56 1
    37   15   57 1
    38   15   58 1
    39   16   17 1
    40   16   59 1
    41   16   60 1
    42   17   18 1
    43   17   61 1
    44   17   62 1
    45   18   19 2
    46   18   36 1
    47   19   20 1
    48   19   63 1
    49   20   21 1
    50   20   64 1
    51   20   65 1
    52   21   22 1
    53   22   32 ar
    54   22   23 ar
    55   23   29 ar
    56   23   24 1
    57   24   25 2
    58   24   66 1
    59   25   26 1
    60   25   67 1
    61   26   27 2
    62   26   28 1
    63   28   29 1
    64   29   30 ar
    65   30   31 ar
    66   30   68 1
    67   31   35 1
    68   31   32 ar
    69   32   33 1
    70   33   34 2
    71   33   69 1
    72   34   35 1
    73   34   70 1
    74   36   71 1
    75   36   72 1
    76   36   73 1
@<TRIPOS>MOLECULE
CHEMBL1078189
   73    76     0     0     0
SMALL
USER_CHARGES

@<TRIPOS>ATOM
      1 C1         -0.0187    1.5258    0.0104 C.3       1 <0>        -0.1543
      2 C2          0.0021   -0.0041    0.0020 C.3       1 <0>        -0.1260
      3 C3          0.7182   -0.4975   -1.2568 C.3       1 <0>        -0.1212
      4 C4          0.7390   -2.0273   -1.2652 C.3       1 <0>        -0.1203
      5 C5          1.4551   -2.5207   -2.5240 C.3       1 <0>        -0.1189
      6 C6          1.4758   -4.0506   -2.5324 C.3       1 <0>        -0.1143
      7 C7          2.1920   -4.5440   -3.7912 C.3       1 <0>        -0.1185
      8 C8          2.2127   -6.0738   -3.7996 C.3       1 <0>         0.2296
      9 O1          0.8816   -6.5854   -3.9836 O.3       1 <0>        -0.3732
     10 C9          0.9922   -7.7733   -4.7879 C.3       1 <0>         0.0607
     11 H1          0.4189   -7.6620   -5.7083 H         1 <0>         0.0937
     12 C10         2.4978   -7.9045   -5.1063 C.3       1 <0>         0.0715
     13 O2          2.9864   -6.5538   -4.9203 O.3       1 <0>        -0.3671
     14 C11         3.1765   -8.8654   -4.1281 C.3       1 <0>        -0.1685
     15 C12         2.7079   -8.3621   -6.5511 C.3       1 <0>        -0.1400
     16 C13         0.5045   -8.9932   -4.0037 C.3       1 <0>        -0.1203
     17 C14        -0.9985   -8.8670   -3.7468 C.3       1 <0>        -0.0819
     18 C15        -1.4787  -10.0685   -2.9744 C.2       1 <0>        -0.0973
     19 C16        -1.5682  -10.0148   -1.6686 C.2       1 <0>        -0.1685
     20 C17        -2.0485  -11.2163   -0.8962 C.3       1 <0>         0.0943
     21 O3         -1.2027  -11.4235    0.2369 O.3       1 <0>        -0.3210
     22 C18        -1.4997  -12.4728    1.0434 C.ar      1 <0>         0.2189
     23 C19        -2.3744  -12.3103    2.1255 C.ar      1 <0>        -0.1933
     24 C20        -2.9838  -11.0104    2.4075 C.2       1 <0>         0.0111
     25 C21        -3.8250  -10.9121    3.4706 C.2       1 <0>        -0.2472
     26 C22        -4.0870  -12.0464    4.2642 C.2       1 <0>         0.5116
     27 O4         -4.8433  -11.9437    5.2134 O.2       1 <0>        -0.4548
     28 O5         -3.5259  -13.2371    4.0022 O.3       1 <0>        -0.2669
     29 C23        -2.6797  -13.4059    2.9606 C.ar      1 <0>         0.1851
     30 C24        -2.1157  -14.6437    2.7124 C.ar      1 <0>        -0.1347
     31 C25        -1.2467  -14.8154    1.6421 C.ar      1 <0>         0.1228
     32 C26        -0.9428  -13.7277    0.8024 C.ar      1 <0>        -0.1722
     33 C27        -0.0187  -14.2581   -0.2093 C.2       1 <0>        -0.1897
     34 C28         0.1480  -15.5542    0.0813 C.2       1 <0>         0.0137
     35 O6         -0.5660  -15.8814    1.1737 O.3       1 <0>        -0.1850
     36 C29        -1.8561  -11.3319   -3.7042 C.3       1 <0>        -0.1309
     37 H2          1.0039    1.9031    0.0027 H         1 <0>         0.0533
     38 H3         -0.5459    1.8868   -0.8726 H         1 <0>         0.0533
     39 H4         -0.5289    1.8773    0.9072 H         1 <0>         0.0534
     40 H5          0.5293   -0.3651    0.8851 H         1 <0>         0.0603
     41 H6         -1.0205   -0.3814    0.0098 H         1 <0>         0.0604
     42 H7          0.1910   -0.1364   -2.1398 H         1 <0>         0.0609
     43 H8          1.7408   -0.1202   -1.2645 H         1 <0>         0.0607
     44 H9          1.2661   -2.3884   -0.3821 H         1 <0>         0.0609
     45 H10        -0.2836   -2.4046   -1.2575 H         1 <0>         0.0615
     46 H11         0.9279   -2.1597   -3.4071 H         1 <0>         0.0626
     47 H12         2.4777   -2.1435   -2.5317 H         1 <0>         0.0617
     48 H13         2.0030   -4.4117   -1.6494 H         1 <0>         0.0619
     49 H14         0.4533   -4.4279   -2.5247 H         1 <0>         0.0705
     50 H15         1.6648   -4.1829   -4.6743 H         1 <0>         0.0773
     51 H16         3.2146   -4.1667   -3.7990 H         1 <0>         0.0818
     52 H17         2.6333   -6.4478   -2.8662 H         1 <0>         0.0724
     53 H18         2.7135   -9.8492   -4.2050 H         1 <0>         0.0772
     54 H19         4.2363   -8.9426   -4.3710 H         1 <0>         0.0693
     55 H20         3.0632   -8.4890   -3.1115 H         1 <0>         0.0624
     56 H21         2.2666   -7.6334   -7.2309 H         1 <0>         0.0685
     57 H22         3.7756   -8.4478   -6.7534 H         1 <0>         0.0703
     58 H23         2.2314   -9.3314   -6.6981 H         1 <0>         0.0755
     59 H24         0.6999   -9.8975   -4.5801 H         1 <0>         0.0785
     60 H25         1.0325   -9.0480   -3.0517 H         1 <0>         0.0760
     61 H26        -1.1938   -7.9627   -3.1705 H         1 <0>         0.0795
     62 H27        -1.5264   -8.8122   -4.6989 H         1 <0>         0.0724
     63 H28        -1.2977   -9.1094   -1.1456 H         1 <0>         0.1222
     64 H29        -3.0714  -11.0470   -0.5599 H         1 <0>         0.0666
     65 H30        -2.0181  -12.0968   -1.5380 H         1 <0>         0.0712
     66 H31        -2.7706  -10.1519    1.7879 H         1 <0>         0.1562
     67 H32        -4.2912   -9.9669    3.7065 H         1 <0>         0.1682
     68 H33        -2.3514  -15.4803    3.3533 H         1 <0>         0.1579
     69 H34         0.4346  -13.7122   -1.0235 H         1 <0>         0.1641
     70 H35         0.7729  -16.2367   -0.4756 H         1 <0>         0.2163
     71 H36        -0.9790  -11.9719   -3.8000 H         1 <0>         0.0725
     72 H37        -2.6300  -11.8573   -3.1446 H         1 <0>         0.0659
     73 H38        -2.2323  -11.0801   -4.6958 H         1 <0>         0.0693
@<TRIPOS>BOND
     1    1    2 1
     2    1   37 1
     3    1   38 1
     4    1   39 1
     5    2    3 1
     6    2   40 1
     7    2   41 1
     8    3    4 1
     9    3   42 1
    10    3   43 1
    11    4    5 1
    12    4   44 1
    13    4   45 1
    14    5    6 1
    15    5   46 1
    16    5   47 1
    17    6    7 1
    18    6   48 1
    19    6   49 1
    20    7    8 1
    21    7   50 1
    22    7   51 1
    23    8   13 1
    24    8    9 1
    25    8   52 1
    26    9   10 1
    27   10   11 1
    28   10   12 1
    29   10   16 1
    30   12   13 1
    31   12   14 1
    32   12   15 1
    33   14   53 1
    34   14   54 1
    35   14   55 1
    36   15   56 1
    37   15   57 1
    38   15   58 1
    39   16   17 1
    40   16   59 1
    41   16   60 1
    42   17   18 1
    43   17   61 1
    44   17   62 1
    45   18   19 2
    46   18   36 1
    47   19   20 1
    48   19   63 1
    49   20   21 1
    50   20   64 1
    51   20   65 1
    52   21   22 1
    53   22   32 ar
    54   22   23 ar
    55   23   29 ar
    56   23   24 1
    57   24   25 2
    58   24   66 1
    59   25   26 1
    60   25   67 1
    61   26   27 2
    62   26   28 1
    63   28   29 1
    64   29   30 ar
    65   30   31 ar
    66   30   68 1
    67   31   35 1
    68   31   32 ar
    69   32   33 1
    70   33   34 2
    71   33   69 1
    72   34   35 1
    73   34   70 1
    74   36   71 1
    75   36   72 1
    76   36   73 1
@<TRIPOS>MOLECULE
CHEMBL497171
   36    38     0     0     0
SMALL
USER_CHARGES

@<TRIPOS>ATOM
      1 C1         -0.0187    1.5258    0.0104 C.3       1 <0>        -0.1576
      2 C2          0.0021   -0.0041    0.0020 C.3       1 <0>        -0.1215
      3 C3         -1.4333   -0.5336    0.0129 C.3       1 <0>        -0.1335
      4 C4         -1.4126   -2.0635    0.0045 C.3       1 <0>         0.0822
      5 N1         -2.7870   -2.5706    0.0149 N.pl3     1 <0>        -0.6924
      6 C5         -3.0220   -3.9383    0.0098 C.ar      1 <0>         0.5066
      7 C6         -4.3338   -4.4227    0.0139 C.ar      1 <0>        -0.1957
      8 C7         -5.6641   -3.7930    0.0232 C.ar      1 <0>        -0.0739
      9 C8         -6.1009   -2.4700    0.0308 C.ar      1 <0>        -0.0793
     10 C9         -7.4511   -2.1945    0.0382 C.ar      1 <0>        -0.1098
     11 C10        -8.3749   -3.2285    0.0381 C.ar      1 <0>        -0.0739
     12 C11        -7.9568   -4.5419    0.0311 C.ar      1 <0>        -0.1116
     13 C12        -6.5982   -4.8406    0.0230 C.ar      1 <0>         0.1198
     14 N2         -5.9072   -6.0405    0.0143 N.pl3     1 <0>        -0.5666
     15 H1         -6.3202   -6.9182    0.0123 H         1 <0>         0.4373
     16 C13        -4.5503   -5.8097    0.0087 C.ar      1 <0>         0.2501
     17 C14        -3.4334   -6.6482    0.0004 C.ar      1 <0>        -0.1676
     18 C15        -2.1839   -6.0958   -0.0024 C.ar      1 <0>         0.1461
     19 N3         -2.0041   -4.7854   -0.0045 N.ar      1 <0>        -0.5263
     20 H2          1.0039    1.9031    0.0027 H         1 <0>         0.0637
     21 H3         -0.5459    1.8868   -0.8726 H         1 <0>         0.0582
     22 H4         -0.5289    1.8773    0.9072 H         1 <0>         0.0582
     23 H5          0.5123   -0.3556   -0.8948 H         1 <0>         0.0690
     24 H6          0.5293   -0.3651    0.8851 H         1 <0>         0.0690
     25 H7         -1.9435   -0.1821    0.9097 H         1 <0>         0.0807
     26 H8         -1.9605   -0.1726   -0.8702 H         1 <0>         0.0806
     27 H9         -0.9024   -2.4150   -0.8923 H         1 <0>         0.0862
     28 H10        -0.8854   -2.4246    0.8875 H         1 <0>         0.0862
     29 H11        -3.5327   -1.9503    0.0253 H         1 <0>         0.4329
     30 H12        -5.3835   -1.6628    0.0313 H         1 <0>         0.1250
     31 H13        -7.7910   -1.1694    0.0445 H         1 <0>         0.1424
     32 H14        -9.4310   -3.0028    0.0440 H         1 <0>         0.1455
     33 H15        -8.6847   -5.3398    0.0314 H         1 <0>         0.1400
     34 H16        -3.5561   -7.7212   -0.0035 H         1 <0>         0.1791
     35 H17        -1.3212   -6.7455   -0.0085 H         1 <0>         0.2092
     36 H18        -1.0999   -4.4344   -0.0113 H         1 <0>         0.4415
@<TRIPOS>BOND
     1    1    2 1
     2    1   20 1
     3    1   21 1
     4    1   22 1
     5    2    3 1
     6    2   23 1
     7    2   24 1
     8    3    4 1
     9    3   25 1
    10    3   26 1
    11    4    5 1
    12    4   27 1
    13    4   28 1
    14    5    6 1
    15    5   29 1
    16    6   19 ar
    17    6    7 ar
    18    7   16 ar
    19    7    8 1
    20    8   13 ar
    21    8    9 ar
    22    9   10 ar
    23    9   30 1
    24   10   11 ar
    25   10   31 1
    26   11   12 ar
    27   11   32 1
    28   12   13 ar
    29   12   33 1
    30   13   14 1
    31   14   15 1
    32   14   16 1
    33   16   17 ar
    34   17   18 ar
    35   17   34 1
    36   18   19 ar
    37   18   35 1
    38   19   36 1
@<TRIPOS>MOLECULE
CHEMBL480295
   62    65     0     0     0
SMALL
USER_CHARGES

@<TRIPOS>ATOM
      1 C1         -0.0187    1.5258    0.0104 C.3       1 <0>        -0.1538
      2 C2          0.0021   -0.0041    0.0020 C.3       1 <0>         0.0532
      3 O1          0.6932   -0.4774    1.1597 O.3       1 <0>        -0.3074
      4 C3          0.8021   -1.8252    1.3058 C.ar      1 <0>         0.1586
      5 C4          0.2597   -2.6727    0.3514 C.ar      1 <0>        -0.1970
      6 C5          0.3698   -4.0425    0.4988 C.ar      1 <0>        -0.0312
      7 C6          1.0203   -4.5733    1.5970 C.ar      1 <0>        -0.1381
      8 C7          1.5654   -3.7334    2.5560 C.ar      1 <0>         0.0801
      9 C8          1.4616   -2.3540    2.4083 C.ar      1 <0>        -0.0096
     10 O2          2.0771   -1.7533    3.4695 O.3       1 <0>        -0.2995
     11 C9          2.2064   -2.7806    4.4702 C.3       1 <0>         0.2123
     12 O3          2.2445   -3.9992    3.7101 O.3       1 <0>        -0.3045
     13 C10        -0.2214   -4.9600   -0.5403 C.3       1 <0>        -0.0687
     14 C11         0.8238   -5.2488   -1.6197 C.3       1 <0>        -0.1137
     15 H1          1.2126   -4.3178   -2.0322 H         1 <0>         0.0950
     16 C12         1.9722   -6.1076   -1.0451 C.3       1 <0>         0.0497
     17 O4          1.6107   -7.4687   -1.3651 O.3       1 <0>        -0.3962
     18 C13         1.0744   -7.4151   -2.7050 C.3       1 <0>         0.2556
     19 C14         0.2185   -6.1257   -2.7386 C.3       1 <0>        -0.1001
     20 H2         -0.8253   -6.3535   -2.5228 H         1 <0>         0.1020
     21 C15         0.3474   -5.4289   -4.0946 C.3       1 <0>        -0.0735
     22 C16        -0.3570   -6.2450   -5.1477 C.ar      1 <0>        -0.0043
     23 C17         0.3337   -7.2233   -5.8379 C.ar      1 <0>        -0.2184
     24 C18        -0.3106   -7.9761   -6.8079 C.ar      1 <0>         0.1539
     25 C19        -1.6529   -7.7462   -7.0854 C.ar      1 <0>         0.0251
     26 C20        -2.3439   -6.7619   -6.3889 C.ar      1 <0>         0.1521
     27 C21        -1.6936   -6.0170   -5.4167 C.ar      1 <0>        -0.2274
     28 O5         -3.6574   -6.5330   -6.6568 O.3       1 <0>        -0.3029
     29 C22        -4.3041   -5.5061   -5.9023 C.3       1 <0>         0.0251
     30 O6         -2.2888   -8.4825   -8.0370 O.3       1 <0>        -0.3138
     31 C23        -2.9211   -9.6900   -7.6079 C.3       1 <0>         0.0360
     32 O7          0.3701   -8.9378   -7.4871 O.3       1 <0>        -0.3024
     33 C24         1.7469   -9.1189   -7.1500 C.3       1 <0>         0.0257
     34 O8          0.2592   -8.5605   -2.9608 O.3       1 <0>        -0.5373
     35 H3          1.0039    1.9031    0.0027 H         1 <0>         0.0676
     36 H4         -0.5459    1.8868   -0.8726 H         1 <0>         0.0810
     37 H5         -0.5289    1.8773    0.9072 H         1 <0>         0.0675
     38 H6         -1.0205   -0.3814    0.0098 H         1 <0>         0.0648
     39 H7          0.5123   -0.3556   -0.8948 H         1 <0>         0.0646
     40 H8         -0.2495   -2.2619   -0.5079 H         1 <0>         0.1434
     41 H9          1.1037   -5.6443    1.7084 H         1 <0>         0.1402
     42 H10         3.1275   -2.6486    5.0379 H         1 <0>         0.1343
     43 H11         1.3423   -2.7792    5.1345 H         1 <0>         0.0846
     44 H12        -0.5249   -5.8948   -0.0691 H         1 <0>         0.0863
     45 H13        -1.0901   -4.4830   -0.9941 H         1 <0>         0.0839
     46 H14         2.9172   -5.8442   -1.5202 H         1 <0>         0.0650
     47 H15         2.0400   -5.9768    0.0349 H         1 <0>         0.1030
     48 H16         1.8817   -7.3523   -3.4346 H         1 <0>         0.0648
     49 H17        -0.1054   -4.4390   -4.0389 H         1 <0>         0.0862
     50 H18         1.4015   -5.3322   -4.3547 H         1 <0>         0.0793
     51 H19         1.3768   -7.4014   -5.6217 H         1 <0>         0.1293
     52 H20        -2.2310   -5.2549   -4.8719 H         1 <0>         0.1333
     53 H21        -4.2601   -5.7523   -4.8414 H         1 <0>         0.0568
     54 H22        -3.7998   -4.5554   -6.0759 H         1 <0>         0.0574
     55 H23        -5.3455   -5.4272   -6.2141 H         1 <0>         0.1027
     56 H24        -2.1758  -10.3554   -7.1721 H         1 <0>         0.0440
     57 H25        -3.6808   -9.4570   -6.8618 H         1 <0>         0.0437
     58 H26        -3.3891  -10.1787   -8.4625 H         1 <0>         0.0919
     59 H27         2.2904   -8.1917   -7.3317 H         1 <0>         0.0567
     60 H28         1.8307   -9.3888   -6.0973 H         1 <0>         0.0558
     61 H29         2.1697   -9.9142   -7.7638 H         1 <0>         0.1029
     62 H30         0.7337   -9.4013   -2.9054 H         1 <0>         0.3844
@<TRIPOS>BOND
     1    1    2 1
     2    1   35 1
     3    1   36 1
     4    1   37 1
     5    2    3 1
     6    2   38 1
     7    2   39 1
     8    3    4 1
     9    4    9 ar
    10    4    5 ar
    11    5    6 ar
    12    5   40 1
    13    6    7 ar
    14    6   13 1
    15    7    8 ar
    16    7   41 1
    17    8   12 1
    18    8    9 ar
    19    9   10 1
    20   10   11 1
    21   11   12 1
    22   11   42 1
    23   11   43 1
    24   13   14 1
    25   13   44 1
    26   13   45 1
    27   14   15 1
    28   14   19 1
    29   14   16 1
    30   16   17 1
    31   16   46 1
    32   16   47 1
    33   17   18 1
    34   18   19 1
    35   18   34 1
    36   18   48 1
    37   19   20 1
    38   19   21 1
    39   21   22 1
    40   21   49 1
    41   21   50 1
    42   22   27 ar
    43   22   23 ar
    44   23   24 ar
    45   23   51 1
    46   24   25 ar
    47   24   32 1
    48   25   26 ar
    49   25   30 1
    50   26   27 ar
    51   26   28 1
    52   27   52 1
    53   28   29 1
    54   29   53 1
    55   29   54 1
    56   29   55 1
    57   30   31 1
    58   31   56 1
    59   31   57 1
    60   31   58 1
    61   32   33 1
    62   33   59 1
    63   33   60 1
    64   33   61 1
    65   34   62 1
@<TRIPOS>MOLECULE
CHEMBL480295
   62    65     0     0     0
SMALL
USER_CHARGES

@<TRIPOS>ATOM
      1 C1         -0.7968    1.4155    0.0524 C.3       1 <0>        -0.1526
      2 C2         -0.6626   -0.1084    0.0288 C.3       1 <0>         0.0529
      3 O1         -0.0149   -0.5481    1.2243 O.3       1 <0>        -0.3065
      4 C3          0.1835   -1.8864    1.3626 C.ar      1 <0>         0.1595
      5 C4         -0.2317   -2.7563    0.3655 C.ar      1 <0>        -0.1965
      6 C5         -0.0306   -4.1165    0.5050 C.ar      1 <0>        -0.0301
      7 C6          0.5848   -4.6155    1.6379 C.ar      1 <0>        -0.1369
      8 C7          1.0031   -3.7531    2.6397 C.ar      1 <0>         0.0800
      9 C8          0.8074   -2.3829    2.5004 C.ar      1 <0>        -0.0095
     10 O2          1.3067   -1.7554    3.6062 O.3       1 <0>        -0.2991
     11 C9          1.4465   -2.7860    4.6021 C.3       1 <0>         0.2123
     12 O3          1.6236   -3.9866    3.8330 O.3       1 <0>        -0.3047
     13 C10        -0.4837   -5.0584   -0.5806 C.3       1 <0>        -0.0692
     14 C11         0.6477   -5.2532   -1.5919 C.3       1 <0>        -0.1153
     15 H1          0.9927   -4.2899   -1.9678 H         1 <0>         0.0950
     16 C12         1.8167   -6.0347   -0.9523 C.3       1 <0>         0.0574
     17 O4          2.3076   -6.8919   -2.0059 O.3       1 <0>        -0.3959
     18 C13         1.1275   -7.3782   -2.6817 C.3       1 <0>         0.2531
     19 C14         0.1827   -6.1543   -2.7576 C.3       1 <0>        -0.0980
     20 H2         -0.8533   -6.4610   -2.6135 H         1 <0>         0.0955
     21 C15         0.3474   -5.4289   -4.0946 C.3       1 <0>        -0.0624
     22 C16        -0.5789   -4.2410   -4.1390 C.ar      1 <0>        -0.0023
     23 C17        -1.9035   -4.4128   -4.4952 C.ar      1 <0>        -0.2305
     24 C18        -2.7589   -3.3223   -4.5378 C.ar      1 <0>         0.1532
     25 C19        -2.2831   -2.0554   -4.2212 C.ar      1 <0>         0.0223
     26 C20        -0.9508   -1.8871   -3.8631 C.ar      1 <0>         0.1509
     27 C21        -0.1031   -2.9835   -3.8180 C.ar      1 <0>        -0.2312
     28 O5         -0.4804   -0.6494   -3.5525 O.3       1 <0>        -0.3003
     29 C22         0.8993   -0.5511   -3.1936 C.3       1 <0>         0.0200
     30 O6         -3.1194   -0.9826   -4.2622 O.3       1 <0>        -0.3111
     31 C23        -3.8227   -0.6619   -3.0603 C.3       1 <0>         0.0354
     32 O7         -4.0617   -3.4922   -4.8892 O.3       1 <0>        -0.3025
     33 C24        -4.4812   -4.8219   -5.2020 C.3       1 <0>         0.0246
     34 O8          1.4582   -7.8318   -3.9959 O.3       1 <0>        -0.5432
     35 H3          0.1935    1.8665    0.1161 H         1 <0>         0.0674
     36 H4         -1.2909    1.7509   -0.8595 H         1 <0>         0.0830
     37 H5         -1.3887    1.7148    0.9174 H         1 <0>         0.0673
     38 H6         -1.6529   -0.5594   -0.0348 H         1 <0>         0.0619
     39 H7         -0.0708   -0.4077   -0.8362 H         1 <0>         0.0641
     40 H8         -0.7131   -2.3703   -0.5209 H         1 <0>         0.1399
     41 H9          0.7397   -5.6791    1.7429 H         1 <0>         0.1376
     42 H10         2.3166   -2.5960    5.2305 H         1 <0>         0.1342
     43 H11         0.5433   -2.8582    5.2081 H         1 <0>         0.0843
     44 H12        -0.7473   -6.0201   -0.1405 H         1 <0>         0.0827
     45 H13        -1.3541   -4.6391   -1.0854 H         1 <0>         0.0842
     46 H14         2.5984   -5.3486   -0.6262 H         1 <0>         0.0962
     47 H15         1.4600   -6.6314   -0.1129 H         1 <0>         0.0667
     48 H16         0.6650   -8.1809   -2.1075 H         1 <0>         0.0712
     49 H17         1.3780   -5.0900   -4.1996 H         1 <0>         0.0802
     50 H18         0.1040   -6.1101   -4.9100 H         1 <0>         0.0904
     51 H19        -2.2724   -5.3976   -4.7411 H         1 <0>         0.1350
     52 H20         0.9312   -2.8542   -3.5356 H         1 <0>         0.1335
     53 H21         1.0907   -1.1663   -2.3144 H         1 <0>         0.0554
     54 H22         1.5160   -0.8993   -4.0221 H         1 <0>         0.0611
     55 H23         1.1435    0.4875   -2.9704 H         1 <0>         0.1047
     56 H24        -4.4451   -1.5074   -2.7669 H         1 <0>         0.0437
     57 H25        -3.1070   -0.4452   -2.2673 H         1 <0>         0.0413
     58 H26        -4.4526    0.2113   -3.2298 H         1 <0>         0.0924
     59 H27        -3.8994   -5.1979   -6.0436 H         1 <0>         0.0589
     60 H28        -4.3251   -5.4653   -4.3361 H         1 <0>         0.0569
     61 H29        -5.5390   -4.8168   -5.4650 H         1 <0>         0.1032
     62 H30         2.0867   -8.5664   -4.0118 H         1 <0>         0.3884
@<TRIPOS>BOND
     1    1    2 1
     2    1   35 1
     3    1   36 1
     4    1   37 1
     5    2    3 1
     6    2   38 1
     7    2   39 1
     8    3    4 1
     9    4    9 ar
    10    4    5 ar
    11    5    6 ar
    12    5   40 1
    13    6    7 ar
    14    6   13 1
    15    7    8 ar
    16    7   41 1
    17    8   12 1
    18    8    9 ar
    19    9   10 1
    20   10   11 1
    21   11   12 1
    22   11   42 1
    23   11   43 1
    24   13   14 1
    25   13   44 1
    26   13   45 1
    27   14   15 1
    28   14   19 1
    29   14   16 1
    30   16   17 1
    31   16   46 1
    32   16   47 1
    33   17   18 1
    34   18   19 1
    35   18   34 1
    36   18   48 1
    37   19   20 1
    38   19   21 1
    39   21   22 1
    40   21   49 1
    41   21   50 1
    42   22   27 ar
    43   22   23 ar
    44   23   24 ar
    45   23   51 1
    46   24   25 ar
    47   24   32 1
    48   25   26 ar
    49   25   30 1
    50   26   27 ar
    51   26   28 1
    52   27   52 1
    53   28   29 1
    54   29   53 1
    55   29   54 1
    56   29   55 1
    57   30   31 1
    58   31   56 1
    59   31   57 1
    60   31   58 1
    61   32   33 1
    62   33   59 1
    63   33   60 1
    64   33   61 1
    65   34   62 1
@<TRIPOS>MOLECULE
CHEMBL549534
   58    62     0     0     0
SMALL
USER_CHARGES

@<TRIPOS>ATOM
      1 C1          0.0079    1.5878    0.4818 C.3       1 <0>        -0.1240
      2 C2          0.0198    0.0967    0.2639 C.ar      1 <0>        -0.0123
      3 C3         -0.3013   -0.4425   -0.9726 C.ar      1 <0>        -0.1670
      4 C4         -0.2798   -1.8146   -1.1351 C.ar      1 <0>         0.1181
      5 N1          0.0406   -2.6078   -0.1313 N.ar      1 <0>        -0.4534
      6 C5          0.3514   -2.1303    1.0578 C.ar      1 <0>         0.1257
      7 C6          0.3574   -0.7682    1.2933 C.ar      1 <0>        -0.1367
      8 C7          0.7200   -0.2307    2.6537 C.3       1 <0>         0.0910
      9 O1         -0.4707   -0.0174    3.4145 O.3       1 <0>        -0.2828
     10 C8         -0.3191    0.4688    4.6740 C.ar      1 <0>         0.1441
     11 C9          0.9376    0.7398    5.1656 C.ar      1 <0>        -0.2038
     12 C10         1.1068    1.2379    6.4538 C.ar      1 <0>        -0.0772
     13 C11         0.0331    1.4700    7.2608 C.ar      1 <0>        -0.1164
     14 C12        -1.2608    1.2060    6.7943 C.ar      1 <0>        -0.0471
     15 C13        -1.4486    0.7048    5.4849 C.ar      1 <0>         0.1211
     16 N2         -2.6827    0.4562    5.0340 N.ar      1 <0>        -0.4432
     17 C14        -3.7453    0.6691    5.7740 C.ar      1 <0>         0.1539
     18 C15        -3.6508    1.1651    7.0675 C.ar      1 <0>        -0.1318
     19 C16        -2.3997    1.4366    7.6094 C.ar      1 <0>         0.0324
     20 C17        -2.2610    1.9647    8.9834 C.2       1 <0>         0.1131
     21 C18        -2.9042    1.3861   10.0504 C.2       1 <0>        -0.1628
     22 S1         -2.3537    2.4439   11.3793 S.3       1 <0>         0.1855
     23 C19        -1.3910    3.4827   10.4710 C.2       1 <0>         0.0363
     24 N3         -1.5037    3.0205    9.2546 N.2       1 <0>        -0.4898
     25 Cl1        -3.9600    0.0088   10.0945 Cl        1 <0>         0.0445
     26 C20        -5.1071    0.3673    5.2035 C.3       1 <0>        -0.1072
     27 C21         0.7098   -3.0802    2.1715 C.3       1 <0>         0.1369
     28 N4         -0.5150   -3.5674    2.8109 N.am      1 <0>        -0.4872
     29 C22        -1.0208   -2.9063    3.8834 C.2       1 <0>         0.1815
     30 C23        -2.1507   -3.3376    4.4911 C.2       1 <0>        -0.2378
     31 C24        -2.8110   -4.4780    4.0128 C.2       1 <0>         0.0589
     32 C25        -2.3016   -5.1406    2.9349 C.2       1 <0>        -0.3268
     33 C26        -1.1293   -4.6627    2.3247 C.2       1 <0>         0.5384
     34 O2         -0.6651   -5.2434    1.3566 O.2       1 <0>        -0.5041
     35 C27        -2.9917   -6.3692    2.4005 C.3       1 <0>         0.5354
     36 F1         -4.1296   -6.6364    3.1692 F         1 <0>        -0.1804
     37 F2         -3.3677   -6.1516    1.0707 F         1 <0>        -0.1711
     38 F3         -2.1182   -7.4601    2.4656 F         1 <0>        -0.1720
     39 H1          0.9920    1.9964    0.2519 H         1 <0>         0.0814
     40 H2         -0.7365    2.0445   -0.1704 H         1 <0>         0.0779
     41 H3         -0.2402    1.8011    1.5216 H         1 <0>         0.0766
     42 H4         -0.5652    0.2018   -1.7983 H         1 <0>         0.1421
     43 H5         -0.5286   -2.2424   -2.0950 H         1 <0>         0.1633
     44 H6          1.3574   -0.9485    3.1700 H         1 <0>         0.0757
     45 H7          1.2531    0.7134    2.5410 H         1 <0>         0.0848
     46 H8          1.8029    0.5632    4.5440 H         1 <0>         0.1358
     47 H9          2.1022    1.4431    6.8192 H         1 <0>         0.1314
     48 H10         0.1799    1.8566    8.2585 H         1 <0>         0.1336
     49 H11        -4.5435    1.3304    7.6524 H         1 <0>         0.1405
     50 H12        -0.8136    4.3288   10.8133 H         1 <0>         0.2302
     51 H13        -5.3748   -0.6650    5.4291 H         1 <0>         0.0836
     52 H14        -5.8433    1.0385    5.6458 H         1 <0>         0.0776
     53 H15        -5.0882    0.5100    4.1231 H         1 <0>         0.0816
     54 H16         1.2673   -3.9237    1.7642 H         1 <0>         0.1260
     55 H17         1.3227   -2.5614    2.9085 H         1 <0>         0.1096
     56 H18        -0.5160   -2.0272    4.2558 H         1 <0>         0.1638
     57 H19        -2.5431   -2.8037    5.3440 H         1 <0>         0.1528
     58 H20        -3.7129   -4.8283    4.4928 H         1 <0>         0.1499
@<TRIPOS>BOND
     1    1    2 1
     2    1   39 1
     3    1   40 1
     4    1   41 1
     5    2    7 ar
     6    2    3 ar
     7    3    4 ar
     8    3   42 1
     9    4    5 ar
    10    4   43 1
    11    5    6 ar
    12    6    7 ar
    13    6   27 1
    14    7    8 1
    15    8    9 1
    16    8   44 1
    17    8   45 1
    18    9   10 1
    19   10   15 ar
    20   10   11 ar
    21   11   12 ar
    22   11   46 1
    23   12   13 ar
    24   12   47 1
    25   13   14 ar
    26   13   48 1
    27   14   19 ar
    28   14   15 ar
    29   15   16 ar
    30   16   17 ar
    31   17   18 ar
    32   17   26 1
    33   18   19 ar
    34   18   49 1
    35   19   20 1
    36   20   24 1
    37   20   21 2
    38   21   22 1
    39   21   25 1
    40   22   23 1
    41   23   24 2
    42   23   50 1
    43   26   51 1
    44   26   52 1
    45   26   53 1
    46   27   28 1
    47   27   54 1
    48   27   55 1
    49   28   33 am
    50   28   29 1
    51   29   30 2
    52   29   56 1
    53   30   31 1
    54   30   57 1
    55   31   32 2
    56   31   58 1
    57   32   33 1
    58   32   35 1
    59   33   34 2
    60   35   36 1
    61   35   37 1
    62   35   38 1
@<TRIPOS>MOLECULE
CHEMBL549534
   59    63     0     0     0
SMALL
USER_CHARGES

@<TRIPOS>ATOM
      1 C1          0.1313    1.2112   -0.1198 C.3       1 <0>        -0.1513
      2 C2          0.1698   -0.2926   -0.0305 C.ar      1 <0>         0.0766
      3 C3          0.0738   -1.0742   -1.1719 C.ar      1 <0>        -0.1292
      4 C4          0.1128   -2.4502   -1.0511 C.ar      1 <0>         0.1501
      5 N1          0.2391   -3.0202    0.1315 N.ar      1 <0>        -0.4503
      6 C5          0.3331   -2.3088    1.2376 C.ar      1 <0>         0.1710
      7 C6          0.3078   -0.9275    1.1942 C.ar      1 <0>        -0.0904
      8 C7          0.4222   -0.1219    2.4626 C.3       1 <0>         0.0825
      9 O1         -0.8705    0.0201    3.0549 O.3       1 <0>        -0.2871
     10 C8         -0.9438    0.7252    4.2139 C.ar      1 <0>         0.1362
     11 C9          0.1925    1.2715    4.7658 C.ar      1 <0>        -0.1908
     12 C10         0.1314    1.9958    5.9523 C.ar      1 <0>        -0.0851
     13 C11        -1.0547    2.1826    6.5976 C.ar      1 <0>        -0.1015
     14 C12        -2.2316    1.6412    6.0655 C.ar      1 <0>        -0.0513
     15 C13        -2.1857    0.9075    4.8569 C.ar      1 <0>         0.1256
     16 N2         -3.3081    0.3934    4.3430 N.ar      1 <0>        -0.4591
     17 C14        -4.4723    0.5522    4.9272 C.ar      1 <0>         0.1612
     18 C15        -4.6072    1.2632    6.1123 C.ar      1 <0>        -0.1354
     19 C16        -3.4825    1.8175    6.7127 C.ar      1 <0>         0.0439
     20 C17        -3.5885    2.5801    7.9749 C.2       1 <0>         0.1047
     21 C18        -4.2794    2.0953    9.0587 C.2       1 <0>        -0.1635
     22 S1         -4.0441    3.4290   10.2221 S.3       1 <0>         0.2010
     23 C19        -3.1194    4.4369    9.2424 C.2       1 <0>         0.0374
     24 N3         -3.0165    3.7684    8.1251 N.2       1 <0>        -0.4928
     25 Cl1        -5.1424    0.6006    9.2451 Cl        1 <0>         0.0448
     26 C20        -5.6980   -0.0540    4.2938 C.3       1 <0>        -0.1074
     27 C21         0.4755   -3.0097    2.5641 C.3       1 <0>         0.1122
     28 N4          0.3781   -4.4578    2.3642 N.am      1 <0>        -0.5237
     29 C22        -0.8253   -5.0733    2.4912 C.2       1 <0>         0.1371
     30 C23        -0.9403   -6.4098    2.3117 C.2       1 <0>        -0.2061
     31 C24         0.1912   -7.1728    1.9906 C.2       1 <0>         0.0645
     32 C25         1.3993   -6.5525    1.8630 C.2       1 <0>        -0.3153
     33 C26         1.4821   -5.1623    2.0512 C.2       1 <0>         0.5262
     34 O2          2.5561   -4.5939    1.9355 O.2       1 <0>        -0.5057
     35 C27         2.6314   -7.3489    1.5184 C.3       1 <0>         0.5330
     36 F1          2.2903   -8.6985    1.3783 F         1 <0>        -0.1706
     37 F2          3.1708   -6.8771    0.3169 F         1 <0>        -0.1710
     38 F3          3.5770   -7.2106    2.5402 F         1 <0>        -0.1651
     39 H1          1.1441    1.5938   -0.2462 H         1 <0>         0.1151
     40 H2         -0.4787    1.5091   -0.9727 H         1 <0>         0.1050
     41 H3         -0.2995    1.6186    0.7948 H         1 <0>         0.1001
     42 H4         -0.0306   -0.6133   -2.1430 H         1 <0>         0.1945
     43 H5          0.0386   -3.0659   -1.9352 H         1 <0>         0.2164
     44 H6          1.0868   -0.6332    3.1591 H         1 <0>         0.0936
     45 H7          0.8264    0.8637    2.2319 H         1 <0>         0.1047
     46 H8          1.1435    1.1360    4.2721 H         1 <0>         0.1357
     47 H9          1.0358    2.4154    6.3677 H         1 <0>         0.1355
     48 H10        -1.0867    2.7468    7.5180 H         1 <0>         0.1381
     49 H11        -5.5790    1.3774    6.5695 H         1 <0>         0.1439
     50 H12        -2.7058    5.4054    9.4820 H         1 <0>         0.2323
     51 H13        -5.8427   -1.0643    4.6763 H         1 <0>         0.0839
     52 H14        -6.5699    0.5541    4.5346 H         1 <0>         0.0816
     53 H15        -5.5678   -0.0902    3.2122 H         1 <0>         0.0804
     54 H16         1.4444   -2.7676    3.0008 H         1 <0>         0.1588
     55 H17        -0.3179   -2.6814    3.2355 H         1 <0>         0.1602
     56 H18        -1.7002   -4.4902    2.7385 H         1 <0>         0.1849
     57 H19        -1.9029   -6.8883    2.4162 H         1 <0>         0.1741
     58 H20         0.1073   -8.2398    1.8462 H         1 <0>         0.1655
     59 H21         0.2633   -3.9882    0.1890 H         1 <0>         0.4405
@<TRIPOS>BOND
     1    1    2 1
     2    1   39 1
     3    1   40 1
     4    1   41 1
     5    2    7 ar
     6    2    3 ar
     7    3    4 ar
     8    3   42 1
     9    4    5 ar
    10    4   43 1
    11    5    6 ar
    12    5   59 1
    13    6    7 ar
    14    6   27 1
    15    7    8 1
    16    8    9 1
    17    8   44 1
    18    8   45 1
    19    9   10 1
    20   10   15 ar
    21   10   11 ar
    22   11   12 ar
    23   11   46 1
    24   12   13 ar
    25   12   47 1
    26   13   14 ar
    27   13   48 1
    28   14   19 ar
    29   14   15 ar
    30   15   16 ar
    31   16   17 ar
    32   17   18 ar
    33   17   26 1
    34   18   19 ar
    35   18   49 1
    36   19   20 1
    37   20   24 1
    38   20   21 2
    39   21   22 1
    40   21   25 1
    41   22   23 1
    42   23   24 2
    43   23   50 1
    44   26   51 1
    45   26   52 1
    46   26   53 1
    47   27   28 1
    48   27   54 1
    49   27   55 1
    50   28   33 am
    51   28   29 1
    52   29   30 2
    53   29   56 1
    54   30   31 1
    55   30   57 1
    56   31   32 2
    57   31   58 1
    58   32   33 1
    59   32   35 1
    60   33   34 2
    61   35   36 1
    62   35   37 1
    63   35   38 1
@<TRIPOS>MOLECULE
CHEMBL70611
   53    56     0     0     0
SMALL
USER_CHARGES

@<TRIPOS>ATOM
      1 C1         -0.0167    1.3782    0.0096 C.ar      1 <0>        -0.1035
      2 C2          1.1706    2.0858    0.0021 C.ar      1 <0>        -0.1084
      3 C3          2.3780    1.4104   -0.0130 C.ar      1 <0>        -0.0383
      4 C4          2.3961    0.0270   -0.0206 C.ar      1 <0>        -0.1080
      5 C5          1.2082   -0.6795   -0.0130 C.ar      1 <0>        -0.1027
      6 C6          0.0021   -0.0041    0.0020 C.ar      1 <0>        -0.0776
      7 C7         -1.2928   -0.7750    0.0107 C.3       1 <0>        -0.0758
      8 C8         -1.7453   -1.0281   -1.4288 C.3       1 <0>        -0.1124
      9 C9         -3.0599   -1.8108   -1.4200 C.3       1 <0>         0.2458
     10 O1         -4.0684   -1.0533   -0.7303 O.3       1 <0>        -0.3580
     11 C10        -4.8635   -2.0430   -0.0343 C.3       1 <0>         0.0173
     12 C11        -3.7877   -3.0796    0.3755 C.3       1 <0>         0.0753
     13 H1         -3.2850   -2.7712    1.2922 H         1 <0>         0.0980
     14 O2         -2.8731   -3.0585   -0.7391 O.3       1 <0>        -0.3524
     15 C12        -4.4100   -4.4673    0.5429 C.3       1 <0>        -0.1126
     16 S1         -3.1559   -5.6213    1.1641 S.3       1 <0>        -0.1025
     17 C13        -4.0166   -7.1527    1.3015 C.ar      1 <0>        -0.1435
     18 C14        -5.3581   -7.2296    0.9491 C.ar      1 <0>        -0.0798
     19 C15        -6.0323   -8.4297    1.0570 C.ar      1 <0>        -0.1787
     20 C16        -5.3696   -9.5596    1.5181 C.ar      1 <0>         0.2146
     21 C17        -4.0286   -9.4830    1.8704 C.ar      1 <0>        -0.1799
     22 C18        -3.3523   -8.2846    1.7569 C.ar      1 <0>        -0.0477
     23 N1         -6.0538  -10.7761    1.6282 N.pl3     1 <0>        -0.8781
     24 C19        -3.5118   -2.0726   -2.8581 C.3       1 <0>         0.0841
     25 N2         -4.7706   -2.8220   -2.8456 N.pl3     1 <0>        -0.4552
     26 C20        -4.9048   -4.1842   -2.8379 C.2       1 <0>        -0.0423
     27 C21        -6.2259   -4.4454   -2.8267 C.2       1 <0>        -0.0356
     28 N3         -6.8804   -3.2747   -2.8275 N.2       1 <0>        -0.4901
     29 C22        -6.0151   -2.2979   -2.8337 C.2       1 <0>         0.1809
     30 Cl1         3.8696    2.2984   -0.0231 Cl        1 <0>        -0.0703
     31 H2         -0.9592    1.9053    0.0259 H         1 <0>         0.1319
     32 H3          1.1558    3.1656    0.0076 H         1 <0>         0.1334
     33 H4          3.3383   -0.5007   -0.0327 H         1 <0>         0.1336
     34 H5          1.2222   -1.7594   -0.0193 H         1 <0>         0.1326
     35 H6         -1.1447   -1.7283    0.5180 H         1 <0>         0.0807
     36 H7         -2.0551   -0.1989    0.5352 H         1 <0>         0.0810
     37 H8         -1.8934   -0.0748   -1.9361 H         1 <0>         0.0874
     38 H9         -0.9830   -1.6042   -1.9533 H         1 <0>         0.0897
     39 H10        -5.3435   -1.6108    0.8438 H         1 <0>         0.1131
     40 H11        -5.6017   -2.4893   -0.7006 H         1 <0>         0.0907
     41 H12        -5.2359   -4.4119    1.2521 H         1 <0>         0.0999
     42 H13        -4.7809   -4.8177   -0.4202 H         1 <0>         0.1030
     43 H14        -5.8737   -6.3507    0.5912 H         1 <0>         0.1203
     44 H15        -7.0753   -8.4896    0.7830 H         1 <0>         0.1236
     45 H16        -3.5135  -10.3618    2.2293 H         1 <0>         0.1257
     46 H17        -2.3081   -8.2260    2.0267 H         1 <0>         0.1268
     47 H18        -6.9906  -10.8297    1.3824 H         1 <0>         0.3991
     48 H19        -5.5910  -11.5654    1.9502 H         1 <0>         0.3993
     49 H20        -3.6598   -1.1223   -3.3711 H         1 <0>         0.1130
     50 H21        -2.7493   -2.6518   -3.3788 H         1 <0>         0.1100
     51 H22        -4.1050   -4.9099   -2.8407 H         1 <0>         0.1731
     52 H23        -6.6789   -5.4258   -2.8184 H         1 <0>         0.1676
     53 H24        -6.2546   -1.2448   -2.8322 H         1 <0>         0.2022
@<TRIPOS>BOND
     1    1    6 ar
     2    1    2 ar
     3    1   31 1
     4    2    3 ar
     5    2   32 1
     6    3    4 ar
     7    3   30 1
     8    4    5 ar
     9    4   33 1
    10    5    6 ar
    11    5   34 1
    12    6    7 1
    13    7    8 1
    14    7   35 1
    15    7   36 1
    16    8    9 1
    17    8   37 1
    18    8   38 1
    19    9   14 1
    20    9   10 1
    21    9   24 1
    22   10   11 1
    23   11   12 1
    24   11   39 1
    25   11   40 1
    26   12   13 1
    27   12   14 1
    28   12   15 1
    29   15   16 1
    30   15   41 1
    31   15   42 1
    32   16   17 1
    33   17   22 ar
    34   17   18 ar
    35   18   19 ar
    36   18   43 1
    37   19   20 ar
    38   19   44 1
    39   20   21 ar
    40   20   23 1
    41   21   22 ar
    42   21   45 1
    43   22   46 1
    44   23   47 1
    45   23   48 1
    46   24   25 1
    47   24   49 1
    48   24   50 1
    49   25   29 1
    50   25   26 1
    51   26   27 2
    52   26   51 1
    53   27   28 1
    54   27   52 1
    55   28   29 2
    56   29   53 1
@<TRIPOS>MOLECULE
CHEMBL70611
   54    57     0     0     0
SMALL
USER_CHARGES

@<TRIPOS>ATOM
      1 C1         -0.0167    1.3782    0.0096 C.ar      1 <0>        -0.1028
      2 C2          1.1706    2.0858    0.0021 C.ar      1 <0>        -0.1077
      3 C3          2.3780    1.4104   -0.0130 C.ar      1 <0>        -0.0341
      4 C4          2.3961    0.0270   -0.0206 C.ar      1 <0>        -0.1071
      5 C5          1.2082   -0.6795   -0.0130 C.ar      1 <0>        -0.1016
      6 C6          0.0021   -0.0041    0.0020 C.ar      1 <0>        -0.0877
      7 C7         -1.2928   -0.7750    0.0107 C.3       1 <0>        -0.0732
      8 C8         -1.7453   -1.0281   -1.4288 C.3       1 <0>        -0.1141
      9 C9         -3.0599   -1.8108   -1.4200 C.3       1 <0>         0.2429
     10 O1         -4.0684   -1.0533   -0.7303 O.3       1 <0>        -0.3510
     11 C10        -4.8635   -2.0430   -0.0343 C.3       1 <0>         0.0191
     12 C11        -3.7877   -3.0796    0.3755 C.3       1 <0>         0.0697
     13 H1         -3.2850   -2.7712    1.2922 H         1 <0>         0.1130
     14 O2         -2.8731   -3.0585   -0.7391 O.3       1 <0>        -0.3494
     15 C12        -4.4100   -4.4673    0.5429 C.3       1 <0>        -0.1191
     16 S1         -3.1559   -5.6213    1.1641 S.3       1 <0>        -0.0850
     17 C13        -4.0166   -7.1527    1.3015 C.ar      1 <0>        -0.1537
     18 C14        -5.3581   -7.2296    0.9491 C.ar      1 <0>        -0.0833
     19 C15        -6.0323   -8.4297    1.0570 C.ar      1 <0>        -0.1835
     20 C16        -5.3696   -9.5596    1.5181 C.ar      1 <0>         0.2226
     21 C17        -4.0286   -9.4830    1.8704 C.ar      1 <0>        -0.1761
     22 C18        -3.3523   -8.2846    1.7569 C.ar      1 <0>        -0.0418
     23 N1         -6.0538  -10.7761    1.6282 N.pl3     1 <0>        -0.8743
     24 C19        -3.5118   -2.0726   -2.8581 C.3       1 <0>         0.0717
     25 N2         -4.7706   -2.8220   -2.8456 N.pl3     1 <0>        -0.4053
     26 C20        -4.9048   -4.1842   -2.8375 C.2       1 <0>         0.0364
     27 C21        -6.2259   -4.4454   -2.8264 C.2       1 <0>        -0.0039
     28 N3         -6.8804   -3.2747   -2.8278 N.pl3     1 <0>        -0.4752
     29 C22        -6.0151   -2.2979   -2.8342 C.cat     1 <0>         0.2855
     30 Cl1         3.8696    2.2984   -0.0231 Cl        1 <0>        -0.0622
     31 H2         -0.9592    1.9053    0.0259 H         1 <0>         0.1310
     32 H3          1.1558    3.1656    0.0076 H         1 <0>         0.1354
     33 H4          3.3383   -0.5007   -0.0327 H         1 <0>         0.1358
     34 H5          1.2222   -1.7594   -0.0193 H         1 <0>         0.1322
     35 H6         -1.1447   -1.7283    0.5180 H         1 <0>         0.0819
     36 H7         -2.0551   -0.1989    0.5352 H         1 <0>         0.0815
     37 H8         -1.8934   -0.0748   -1.9361 H         1 <0>         0.0941
     38 H9         -0.9830   -1.6042   -1.9533 H         1 <0>         0.0974
     39 H10        -5.3435   -1.6108    0.8438 H         1 <0>         0.1284
     40 H11        -5.6017   -2.4893   -0.7006 H         1 <0>         0.0595
     41 H12        -5.2359   -4.4119    1.2521 H         1 <0>         0.1051
     42 H13        -4.7809   -4.8177   -0.4202 H         1 <0>         0.0876
     43 H14        -5.8737   -6.3507    0.5912 H         1 <0>         0.1130
     44 H15        -7.0753   -8.4896    0.7830 H         1 <0>         0.1233
     45 H16        -3.5135  -10.3618    2.2293 H         1 <0>         0.1301
     46 H17        -2.3081   -8.2260    2.0267 H         1 <0>         0.1296
     47 H18        -6.9906  -10.8297    1.3824 H         1 <0>         0.4007
     48 H19        -5.5910  -11.5654    1.9502 H         1 <0>         0.4030
     49 H20        -3.6598   -1.1223   -3.3711 H         1 <0>         0.1416
     50 H21        -2.7493   -2.6518   -3.3788 H         1 <0>         0.1437
     51 H22        -4.1050   -4.9099   -2.8398 H         1 <0>         0.2246
     52 H23        -6.6789   -5.4258   -2.8179 H         1 <0>         0.2248
     53 H24        -6.2546   -1.2448   -2.8331 H         1 <0>         0.2607
     54 H25        -7.8448   -3.1706   -2.8212 H         1 <0>         0.4661
@<TRIPOS>BOND
     1    1    6 ar
     2    1    2 ar
     3    1   31 1
     4    2    3 ar
     5    2   32 1
     6    3    4 ar
     7    3   30 1
     8    4    5 ar
     9    4   33 1
    10    5    6 ar
    11    5   34 1
    12    6    7 1
    13    7    8 1
    14    7   35 1
    15    7   36 1
    16    8    9 1
    17    8   37 1
    18    8   38 1
    19    9   14 1
    20    9   10 1
    21    9   24 1
    22   10   11 1
    23   11   12 1
    24   11   39 1
    25   11   40 1
    26   12   13 1
    27   12   14 1
    28   12   15 1
    29   15   16 1
    30   15   41 1
    31   15   42 1
    32   16   17 1
    33   17   22 ar
    34   17   18 ar
    35   18   19 ar
    36   18   43 1
    37   19   20 ar
    38   19   44 1
    39   20   21 ar
    40   20   23 1
    41   21   22 ar
    42   21   45 1
    43   22   46 1
    44   23   47 1
    45   23   48 1
    46   24   25 1
    47   24   49 1
    48   24   50 1
    49   25   29 1
    50   25   26 1
    51   26   27 2
    52   26   51 1
    53   27   28 1
    54   27   52 1
    55   28   29 2
    56   28   54 1
    57   29   53 1
@<TRIPOS>MOLECULE
CHEMBL429845
   69    74     0     0     0
SMALL
USER_CHARGES

@<TRIPOS>ATOM
      1 C1         -0.6422    1.7717   -0.1531 C.3       1 <0>        -0.1560
      2 C2         -0.2411    0.2952   -0.1601 C.3       1 <0>        -0.0257
      3 C3          0.7229    0.0231    0.9965 C.3       1 <0>        -0.1546
      4 C4         -1.4715   -0.5603   -0.0004 C.2       1 <0>        -0.0128
      5 C5         -2.3712   -0.5421    1.0824 C.2       1 <0>        -0.1020
      6 C6         -3.3505   -1.4828    0.8197 C.2       1 <0>         0.1134
      7 N1         -3.0855   -2.0641   -0.3632 N.pl3     1 <0>        -0.2256
      8 C7         -1.9351   -1.5066   -0.8892 C.2       1 <0>        -0.1037
      9 C8         -1.4723   -1.9713   -2.1441 C.2       1 <0>         0.5373
     10 N2         -2.1516   -2.9160   -2.7731 N.2       1 <0>        -0.6175
     11 C9         -3.2605   -3.4409   -2.2549 C.2       1 <0>         0.3422
     12 N3         -3.7367   -3.0644   -1.1002 N.2       1 <0>        -0.3466
     13 N4         -0.3260   -1.4443   -2.7048 N.pl3     1 <0>        -0.6120
     14 C10         0.0516   -1.8116   -4.0025 C.ar      1 <0>         0.0921
     15 C11        -0.8875   -2.3354   -4.8736 C.ar      1 <0>        -0.0391
     16 C12        -0.5076   -2.7003   -6.1673 C.ar      1 <0>        -0.1633
     17 C13         0.8205   -2.5339   -6.5744 C.ar      1 <0>         0.1849
     18 C14         1.7507   -2.0099   -5.6967 C.ar      1 <0>        -0.1765
     19 C15         1.3709   -1.6441   -4.4172 C.ar      1 <0>         0.1345
     20 F1          2.2837   -1.1273   -3.5658 F         1 <0>        -0.1203
     21 F2          1.1935   -2.8855   -7.8244 F         1 <0>        -0.0991
     22 C16        -1.5037   -3.2599   -7.1014 C.2       1 <0>         0.5664
     23 O1         -1.1708   -3.5768   -8.2270 O.2       1 <0>        -0.5117
     24 N5         -2.7825   -3.4196   -6.7067 N.am      1 <0>        -0.6949
     25 C17        -3.7713   -3.9751   -7.6340 C.3       1 <0>         0.0776
     26 C18        -5.1428   -3.2994   -7.6923 C.3       1 <0>        -0.1916
     27 C19        -4.9931   -4.6707   -7.0304 C.3       1 <0>        -0.1858
     28 C20        -2.2852    0.3224    2.2785 C.2       1 <0>         0.2555
     29 N6         -1.3602    1.2175    2.5241 N.2       1 <0>        -0.2408
     30 N7         -1.6002    1.7810    3.6555 N.2       1 <0>        -0.3193
     31 C21        -2.6881    1.2679    4.1770 C.2       1 <0>         0.4062
     32 O2         -3.1490    0.3393    3.3172 O.3       1 <0>        -0.2384
     33 N8         -3.2600    1.6192    5.3856 N.pl3     1 <0>        -0.5860
     34 C22        -4.4848    0.9589    5.8630 C.3       1 <0>         0.1011
     35 C23        -4.2535    0.4888    7.3029 C.3       1 <0>        -0.0215
     36 N9         -3.8184    1.6258    8.1240 N.4       1 <0>        -0.3863
     37 C24        -2.5157    2.1130    7.6534 C.3       1 <0>        -0.0230
     38 C25        -2.6578    2.6596    6.2334 C.3       1 <0>         0.1156
     39 C26        -3.7028    1.1998    9.5251 C.3       1 <0>        -0.0474
     40 H1          0.2477    2.3904   -0.2686 H         1 <0>         0.0673
     41 H2         -1.3289    1.9655   -0.9771 H         1 <0>         0.0504
     42 H3         -1.1310    2.0110    0.7913 H         1 <0>         0.0877
     43 H4          0.2477    0.0559   -1.1045 H         1 <0>         0.0620
     44 H5          0.2340    0.2624    1.9409 H         1 <0>         0.0853
     45 H6          1.0086   -1.0288    0.9915 H         1 <0>         0.0503
     46 H7          1.6127    0.6419    0.8810 H         1 <0>         0.0677
     47 H8         -4.1894   -1.7129    1.4597 H         1 <0>         0.1915
     48 H9         -3.7802   -4.2099   -2.8071 H         1 <0>         0.2278
     49 H10         0.2179   -0.8197   -2.1999 H         1 <0>         0.4299
     50 H11        -1.9113   -2.4620   -4.5540 H         1 <0>         0.1823
     51 H12         2.7759   -1.8820   -6.0114 H         1 <0>         0.1674
     52 H13        -3.0481   -3.1668   -5.8087 H         1 <0>         0.4007
     53 H14        -3.3694   -4.3800   -8.5628 H         1 <0>         0.1424
     54 H15        -5.3093   -2.4416   -7.0408 H         1 <0>         0.0963
     55 H16        -5.6434   -3.2595   -8.6597 H         1 <0>         0.1059
     56 H17        -5.3953   -5.5329   -7.5624 H         1 <0>         0.1073
     57 H18        -5.0612   -4.7150   -5.9434 H         1 <0>         0.0972
     58 H19        -5.3153    1.6644    5.8370 H         1 <0>         0.1033
     59 H20        -4.7093    0.1009    5.2293 H         1 <0>         0.1289
     60 H21        -5.1813    0.0831    7.7063 H         1 <0>         0.1492
     61 H22        -3.4840   -0.2831    7.3141 H         1 <0>         0.1355
     62 H23        -2.1629    2.9042    8.3150 H         1 <0>         0.1517
     63 H24        -1.7987    1.2920    7.6539 H         1 <0>         0.1364
     64 H25        -1.6749    2.9255    5.8445 H         1 <0>         0.1428
     65 H26        -3.3006    3.5398    6.2455 H         1 <0>         0.1026
     66 H27        -2.9716    0.3951    9.6011 H         1 <0>         0.1229
     67 H28        -3.3799    2.0430   10.1358 H         1 <0>         0.1280
     68 H29        -4.6712    0.8453    9.8782 H         1 <0>         0.1269
     69 H30        -4.4984    2.3681    8.0557 H         1 <0>         0.4270
@<TRIPOS>BOND
     1    1    2 1
     2    1   40 1
     3    1   41 1
     4    1   42 1
     5    2    3 1
     6    2    4 1
     7    2   43 1
     8    3   44 1
     9    3   45 1
    10    3   46 1
    11    4    8 2
    12    4    5 1
    13    5    6 2
    14    5   28 1
    15    6    7 1
    16    6   47 1
    17    7   12 1
    18    7    8 1
    19    8    9 1
    20    9   10 2
    21    9   13 1
    22   10   11 1
    23   11   12 2
    24   11   48 1
    25   13   14 1
    26   13   49 1
    27   14   19 ar
    28   14   15 ar
    29   15   16 ar
    30   15   50 1
    31   16   17 ar
    32   16   22 1
    33   17   18 ar
    34   17   21 1
    35   18   19 ar
    36   18   51 1
    37   19   20 1
    38   22   23 2
    39   22   24 am
    40   24   25 1
    41   24   52 1
    42   25   27 1
    43   25   26 1
    44   25   53 1
    45   26   27 1
    46   26   54 1
    47   26   55 1
    48   27   56 1
    49   27   57 1
    50   28   32 1
    51   28   29 2
    52   29   30 1
    53   30   31 2
    54   31   32 1
    55   31   33 1
    56   33   38 1
    57   33   34 1
    58   34   35 1
    59   34   58 1
    60   34   59 1
    61   35   36 1
    62   35   60 1
    63   35   61 1
    64   36   37 1
    65   36   39 1
    66   36   69 1
    67   37   38 1
    68   37   62 1
    69   37   63 1
    70   38   64 1
    71   38   65 1
    72   39   66 1
    73   39   67 1
    74   39   68 1
@<TRIPOS>MOLECULE
CHEMBL429845
   68    73     0     0     0
SMALL
USER_CHARGES

@<TRIPOS>ATOM
      1 C1         -0.6422    1.7717   -0.1531 C.3       1 <0>        -0.1574
      2 C2         -0.2411    0.2952   -0.1601 C.3       1 <0>        -0.0211
      3 C3          0.7229    0.0231    0.9965 C.3       1 <0>        -0.1564
      4 C4         -1.4715   -0.5603   -0.0004 C.2       1 <0>        -0.0189
      5 C5         -2.3712   -0.5421    1.0824 C.2       1 <0>        -0.0794
      6 C6         -3.3505   -1.4828    0.8197 C.2       1 <0>         0.1091
      7 N1         -3.0855   -2.0641   -0.3632 N.pl3     1 <0>        -0.2298
      8 C7         -1.9351   -1.5066   -0.8892 C.2       1 <0>        -0.1084
      9 C8         -1.4723   -1.9713   -2.1441 C.2       1 <0>         0.5376
     10 N2         -2.1516   -2.9160   -2.7731 N.2       1 <0>        -0.6215
     11 C9         -3.2605   -3.4409   -2.2549 C.2       1 <0>         0.3339
     12 N3         -3.7367   -3.0644   -1.1002 N.2       1 <0>        -0.3430
     13 N4         -0.3260   -1.4443   -2.7048 N.pl3     1 <0>        -0.6156
     14 C10         0.0516   -1.8116   -4.0025 C.ar      1 <0>         0.0989
     15 C11        -0.8875   -2.3354   -4.8736 C.ar      1 <0>        -0.0408
     16 C12        -0.5076   -2.7003   -6.1673 C.ar      1 <0>        -0.1641
     17 C13         0.8205   -2.5339   -6.5744 C.ar      1 <0>         0.1801
     18 C14         1.7507   -2.0099   -5.6967 C.ar      1 <0>        -0.1769
     19 C15         1.3709   -1.6441   -4.4172 C.ar      1 <0>         0.1321
     20 F1          2.2837   -1.1273   -3.5658 F         1 <0>        -0.1200
     21 F2          1.1935   -2.8855   -7.8244 F         1 <0>        -0.1018
     22 C16        -1.5037   -3.2599   -7.1014 C.2       1 <0>         0.5679
     23 O1         -1.1708   -3.5768   -8.2270 O.2       1 <0>        -0.5153
     24 N5         -2.7825   -3.4196   -6.7067 N.am      1 <0>        -0.6950
     25 C17        -3.7713   -3.9751   -7.6340 C.3       1 <0>         0.0781
     26 C18        -5.1428   -3.2994   -7.6923 C.3       1 <0>        -0.1920
     27 C19        -4.9931   -4.6707   -7.0304 C.3       1 <0>        -0.1861
     28 C20        -2.2852    0.3224    2.2785 C.2       1 <0>         0.2137
     29 N6         -1.3602    1.2175    2.5241 N.2       1 <0>        -0.2356
     30 N7         -1.6002    1.7810    3.6555 N.2       1 <0>        -0.3457
     31 C21        -2.6881    1.2679    4.1770 C.2       1 <0>         0.4338
     32 O2         -3.1490    0.3393    3.3172 O.3       1 <0>        -0.2433
     33 N8         -3.2600    1.6192    5.3856 N.pl3     1 <0>        -0.5668
     34 C22        -4.4847    0.9582    5.8616 C.3       1 <0>         0.1258
     35 C23        -4.2488    0.4704    7.2950 C.3       1 <0>         0.0388
     36 N9         -3.7879    1.5939    8.1216 N.3       1 <0>        -0.5431
     37 C24        -2.4961    2.1089    7.6483 C.3       1 <0>         0.0367
     38 C25        -2.6567    2.6596    6.2322 C.3       1 <0>         0.1409
     39 C26        -3.7147    1.2103    9.5377 C.3       1 <0>         0.0240
     40 H1          0.2477    2.3904   -0.2686 H         1 <0>         0.0645
     41 H2         -1.3289    1.9655   -0.9771 H         1 <0>         0.0478
     42 H3         -1.1310    2.0110    0.7913 H         1 <0>         0.0930
     43 H4          0.2477    0.0559   -1.1045 H         1 <0>         0.0576
     44 H5          0.2340    0.2624    1.9409 H         1 <0>         0.0905
     45 H6          1.0086   -1.0288    0.9915 H         1 <0>         0.0480
     46 H7          1.6127    0.6419    0.8810 H         1 <0>         0.0651
     47 H8         -4.1894   -1.7129    1.4597 H         1 <0>         0.1920
     48 H9         -3.7802   -4.2099   -2.8071 H         1 <0>         0.2247
     49 H10         0.2179   -0.8197   -2.1999 H         1 <0>         0.4304
     50 H11        -1.9113   -2.4620   -4.5540 H         1 <0>         0.1831
     51 H12         2.7759   -1.8820   -6.0114 H         1 <0>         0.1657
     52 H13        -3.0481   -3.1668   -5.8087 H         1 <0>         0.4021
     53 H14        -3.3694   -4.3800   -8.5628 H         1 <0>         0.1415
     54 H15        -5.3093   -2.4416   -7.0408 H         1 <0>         0.0970
     55 H16        -5.6434   -3.2595   -8.6597 H         1 <0>         0.1050
     56 H17        -5.3953   -5.5329   -7.5624 H         1 <0>         0.1064
     57 H18        -5.0612   -4.7150   -5.9434 H         1 <0>         0.0981
     58 H19        -5.3125    1.6671    5.8476 H         1 <0>         0.0864
     59 H20        -4.7156    0.1085    5.2190 H         1 <0>         0.0889
     60 H21        -5.1796    0.0765    7.7030 H         1 <0>         0.0947
     61 H22        -3.4917   -0.3138    7.2924 H         1 <0>         0.0416
     62 H23        -2.1559    2.9034    8.3125 H         1 <0>         0.0973
     63 H24        -1.7635    1.3019    7.6407 H         1 <0>         0.0425
     64 H25        -1.6798    2.9343    5.8345 H         1 <0>         0.1041
     65 H26        -3.3055    3.5352    6.2546 H         1 <0>         0.0849
     66 H27        -3.0166    0.3814    9.6541 H         1 <0>         0.0279
     67 H28        -3.3709    2.0603   10.1271 H         1 <0>         0.0734
     68 H29        -4.7024    0.9046    9.8828 H         1 <0>         0.0727
@<TRIPOS>BOND
     1    1    2 1
     2    1   40 1
     3    1   41 1
     4    1   42 1
     5    2    3 1
     6    2    4 1
     7    2   43 1
     8    3   44 1
     9    3   45 1
    10    3   46 1
    11    4    8 2
    12    4    5 1
    13    5    6 2
    14    5   28 1
    15    6    7 1
    16    6   47 1
    17    7   12 1
    18    7    8 1
    19    8    9 1
    20    9   10 2
    21    9   13 1
    22   10   11 1
    23   11   12 2
    24   11   48 1
    25   13   14 1
    26   13   49 1
    27   14   19 ar
    28   14   15 ar
    29   15   16 ar
    30   15   50 1
    31   16   17 ar
    32   16   22 1
    33   17   18 ar
    34   17   21 1
    35   18   19 ar
    36   18   51 1
    37   19   20 1
    38   22   23 2
    39   22   24 am
    40   24   25 1
    41   24   52 1
    42   25   27 1
    43   25   26 1
    44   25   53 1
    45   26   27 1
    46   26   54 1
    47   26   55 1
    48   27   56 1
    49   27   57 1
    50   28   32 1
    51   28   29 2
    52   29   30 1
    53   30   31 2
    54   31   32 1
    55   31   33 1
    56   33   38 1
    57   33   34 1
    58   34   35 1
    59   34   58 1
    60   34   59 1
    61   35   36 1
    62   35   60 1
    63   35   61 1
    64   36   37 1
    65   36   39 1
    66   37   38 1
    67   37   62 1
    68   37   63 1
    69   38   64 1
    70   38   65 1
    71   39   66 1
    72   39   67 1
    73   39   68 1
@<TRIPOS>MOLECULE
CHEMBL1081693
   77    80     0     0     0
SMALL
USER_CHARGES

@<TRIPOS>ATOM
      1 C1         -0.6138    0.2785    0.0121 C.3       1 <0>        -0.1876
      2 C2         -0.2388   -1.1686   -0.3136 C.3       1 <0>        -0.0194
      3 N1          0.5376   -1.2046   -1.5601 N.4       1 <0>        -0.3879
      4 C3          0.7760   -2.6012   -1.9484 C.3       1 <0>        -0.0309
      5 C4         -0.5577   -3.2723   -2.2827 C.3       1 <0>         0.1470
      6 H1         -1.1737   -3.3237   -1.3850 H         1 <0>         0.1226
      7 C5         -0.2999   -4.6867   -2.8060 C.3       1 <0>        -0.0911
      8 C6         -1.6150   -5.3909   -3.0193 C.ar      1 <0>        -0.0827
      9 C7         -2.1841   -6.1185   -1.9909 C.ar      1 <0>        -0.1015
     10 C8         -3.3905   -6.7645   -2.1864 C.ar      1 <0>        -0.1094
     11 C9         -4.0280   -6.6826   -3.4103 C.ar      1 <0>        -0.1081
     12 C10        -3.4593   -5.9542   -4.4384 C.ar      1 <0>        -0.1145
     13 C11        -2.2551   -5.3047   -4.2415 C.ar      1 <0>        -0.1106
     14 N2         -1.2537   -2.4914   -3.3085 N.am      1 <0>        -0.7280
     15 C12        -2.5958   -2.5587   -3.4116 C.2       1 <0>         0.6523
     16 O1         -3.2286   -3.2670   -2.6537 O.2       1 <0>        -0.5249
     17 O2         -3.2354   -1.8411   -4.3543 O.3       1 <0>        -0.3592
     18 C13        -4.6584   -1.9605   -4.4062 C.3       1 <0>         0.1810
     19 C14        -5.1953   -1.0921   -5.5147 C.2       1 <0>        -0.0732
     20 C15        -5.3900   -1.4585   -6.7923 C.2       1 <0>         0.0105
     21 N3         -5.8794   -0.3938   -7.4521 N.2       1 <0>        -0.4874
     22 C16        -5.9867    0.6012   -6.6184 C.2       1 <0>         0.1966
     23 O3         -5.5756    0.1963   -5.4093 O.3       1 <0>        -0.1986
     24 C17         1.8247   -0.5269   -1.3550 C.3       1 <0>        -0.0277
     25 C18         2.5731   -0.4396   -2.6866 C.3       1 <0>         0.1355
     26 H2          2.8169   -1.4440   -3.0329 H         1 <0>         0.1321
     27 C19         3.8627    0.3611   -2.4953 C.3       1 <0>        -0.0864
     28 C20         4.6594    0.3433   -3.7744 C.ar      1 <0>        -0.0978
     29 C21         5.5828   -0.6604   -3.9997 C.ar      1 <0>        -0.1065
     30 C22         6.3136   -0.6766   -5.1730 C.ar      1 <0>        -0.1125
     31 C23         6.1206    0.3105   -6.1212 C.ar      1 <0>        -0.1087
     32 C24         5.1964    1.3137   -5.8964 C.ar      1 <0>        -0.1150
     33 C25         4.4626    1.3276   -4.7249 C.ar      1 <0>        -0.1101
     34 N4          1.7270    0.2273   -3.6794 N.am      1 <0>        -0.7247
     35 C26         1.6019   -0.2928   -4.9165 C.2       1 <0>         0.6517
     36 O4          2.1909   -1.3147   -5.2084 O.2       1 <0>        -0.5383
     37 O5          0.8243    0.3201   -5.8289 O.3       1 <0>        -0.3548
     38 C27         0.7378   -0.2865   -7.1199 C.3       1 <0>         0.1943
     39 C28        -0.1698    0.5334   -8.0003 C.2       1 <0>         0.1609
     40 N5          0.2048    1.5137   -8.7719 N.2       1 <0>        -0.4437
     41 C29        -0.8771    2.0034   -9.4028 C.2       1 <0>        -0.0431
     42 C30        -1.9423    1.2927   -8.9970 C.2       1 <0>        -0.0434
     43 O6         -1.4938    0.3704   -8.1228 O.3       1 <0>        -0.1925
     44 H3          0.2874    0.8417    0.2545 H         1 <0>         0.0838
     45 H4         -1.1033    0.7300   -0.8508 H         1 <0>         0.0776
     46 H5         -1.2927    0.2949    0.8647 H         1 <0>         0.1101
     47 H6          0.3594   -1.5806    0.4991 H         1 <0>         0.1388
     48 H7         -1.1460   -1.7608   -0.4334 H         1 <0>         0.1326
     49 H8          1.4262   -2.6293   -2.8227 H         1 <0>         0.1447
     50 H9          1.2528   -3.1312   -1.1238 H         1 <0>         0.1590
     51 H10         0.2402   -4.6316   -3.7512 H         1 <0>         0.0892
     52 H11         0.2950   -5.2401   -2.0794 H         1 <0>         0.0979
     53 H12        -1.6860   -6.1826   -1.0347 H         1 <0>         0.1169
     54 H13        -3.8347   -7.3336   -1.3832 H         1 <0>         0.1218
     55 H14        -4.9701   -7.1879   -3.5633 H         1 <0>         0.1217
     56 H15        -3.9572   -5.8904   -5.3946 H         1 <0>         0.1187
     57 H16        -1.8126   -4.7325   -5.0435 H         1 <0>         0.1098
     58 H17        -0.7485   -1.9259   -3.9135 H         1 <0>         0.4014
     59 H18        -4.9292   -2.9993   -4.5950 H         1 <0>         0.1095
     60 H19        -5.0848   -1.6410   -3.4554 H         1 <0>         0.0915
     61 H20        -5.1897   -2.4325   -7.2136 H         1 <0>         0.1872
     62 H21        -6.3510    1.5885   -6.8608 H         1 <0>         0.2557
     63 H22         1.6491    0.4778   -0.9703 H         1 <0>         0.1451
     64 H23         2.4222   -1.0909   -0.6387 H         1 <0>         0.1565
     65 H24         3.6161    1.3904   -2.2351 H         1 <0>         0.0900
     66 H25         4.4519   -0.0851   -1.6941 H         1 <0>         0.1002
     67 H26         5.7336   -1.4316   -3.2589 H         1 <0>         0.1204
     68 H27         7.0356   -1.4604   -5.3487 H         1 <0>         0.1249
     69 H28         6.6920    0.2982   -7.0376 H         1 <0>         0.1249
     70 H29         5.0459    2.0852   -6.6370 H         1 <0>         0.1236
     71 H30         3.7380    2.1092   -4.5509 H         1 <0>         0.1155
     72 H31         1.2568    1.0431   -3.4464 H         1 <0>         0.4137
     73 H32         1.7310   -0.3343   -7.5662 H         1 <0>         0.1190
     74 H33         0.3348   -1.2945   -7.0214 H         1 <0>         0.1018
     75 H34        -0.8878    2.8210  -10.1084 H         1 <0>         0.1929
     76 H35        -2.9652    1.4319   -9.3143 H         1 <0>         0.2226
     77 H36         0.0232   -0.7356   -2.2904 H         1 <0>         0.4169
@<TRIPOS>BOND
     1    1    2 1
     2    1   44 1
     3    1   45 1
     4    1   46 1
     5    2    3 1
     6    2   47 1
     7    2   48 1
     8    3    4 1
     9    3   24 1
    10    3   77 1
    11    4    5 1
    12    4   49 1
    13    4   50 1
    14    5    6 1
    15    5    7 1
    16    5   14 1
    17    7    8 1
    18    7   51 1
    19    7   52 1
    20    8   13 ar
    21    8    9 ar
    22    9   10 ar
    23    9   53 1
    24   10   11 ar
    25   10   54 1
    26   11   12 ar
    27   11   55 1
    28   12   13 ar
    29   12   56 1
    30   13   57 1
    31   14   15 am
    32   14   58 1
    33   15   16 2
    34   15   17 1
    35   17   18 1
    36   18   19 1
    37   18   59 1
    38   18   60 1
    39   19   23 1
    40   19   20 2
    41   20   21 1
    42   20   61 1
    43   21   22 2
    44   22   23 1
    45   22   62 1
    46   24   25 1
    47   24   63 1
    48   24   64 1
    49   25   26 1
    50   25   27 1
    51   25   34 1
    52   27   28 1
    53   27   65 1
    54   27   66 1
    55   28   33 ar
    56   28   29 ar
    57   29   30 ar
    58   29   67 1
    59   30   31 ar
    60   30   68 1
    61   31   32 ar
    62   31   69 1
    63   32   33 ar
    64   32   70 1
    65   33   71 1
    66   34   35 am
    67   34   72 1
    68   35   36 2
    69   35   37 1
    70   37   38 1
    71   38   39 1
    72   38   73 1
    73   38   74 1
    74   39   43 1
    75   39   40 2
    76   40   41 1
    77   41   42 2
    78   41   75 1
    79   42   43 1
    80   42   76 1
@<TRIPOS>MOLECULE
CHEMBL1215621
   42    44     0     0     0
SMALL
USER_CHARGES

@<TRIPOS>ATOM
      1 C1          0.3573    1.4763    0.2711 C.3       1 <0>        -0.1311
      2 C2          0.1854   -0.0141    0.1290 C.2       1 <0>         0.2088
      3 C3         -1.0493   -0.5381    0.0894 C.2       1 <0>        -0.1429
      4 C4         -1.2690   -2.0167   -0.0601 C.3       1 <0>         0.0793
      5 C5         -0.0076   -2.7757    0.2396 C.2       1 <0>        -0.1697
      6 C6          1.1888   -2.1624    0.2735 C.2       1 <0>         0.1581
      7 N1          1.2934   -0.8185    0.0361 N.pl3     1 <0>        -0.6285
      8 C7          2.4289   -2.9655    0.5706 C.3       1 <0>         0.1606
      9 N2          3.0737   -3.3515   -0.6870 N.pl3     1 <0>        -0.3923
     10 C8          4.3487   -3.1184   -1.0434 C.2       1 <0>         0.2530
     11 N3          4.5345   -3.6196   -2.2376 N.2       1 <0>        -0.5372
     12 C9          3.4062   -4.1781   -2.6739 C.2       1 <0>         0.1993
     13 N4          2.4842   -4.0441   -1.7571 N.2       1 <0>        -0.2850
     14 C10        -0.0799   -4.1646    0.4919 C.2       1 <0>         0.5133
     15 O1         -0.1726   -4.9474   -0.4352 O.2       1 <0>        -0.4552
     16 O2         -0.0461   -4.6226    1.7610 O.3       1 <0>        -0.3567
     17 C11        -0.1234   -6.0379    1.9422 C.3       1 <0>         0.0316
     18 C12        -1.7027   -2.3135   -1.4725 C.ar      1 <0>        -0.0810
     19 C13        -0.8749   -1.9908   -2.5316 C.ar      1 <0>        -0.0459
     20 C14        -1.2714   -2.2624   -3.8272 C.ar      1 <0>        -0.1452
     21 C15        -2.4987   -2.8581   -4.0653 C.ar      1 <0>         0.1179
     22 C16        -3.3274   -3.1816   -3.0048 C.ar      1 <0>        -0.1453
     23 C17        -2.9266   -2.9139   -1.7082 C.ar      1 <0>         0.0030
     24 Cl1        -3.9625   -3.3247   -0.3771 Cl        1 <0>        -0.0521
     25 F1         -2.8871   -3.1230   -5.3318 F         1 <0>        -0.1309
     26 C18        -2.1826    0.3312    0.1923 C.1       1 <0>         0.2620
     27 N5         -3.0816    1.0209    0.2739 N.1       1 <0>        -0.4139
     28 H1          1.4196    1.7203    0.2804 H         1 <0>         0.0828
     29 H2         -0.1236    1.9792   -0.5679 H         1 <0>         0.0932
     30 H3         -0.0997    1.8075    1.2036 H         1 <0>         0.0958
     31 H4         -2.0513   -2.3347    0.6290 H         1 <0>         0.1036
     32 H5          2.1528   -0.4323   -0.1944 H         1 <0>         0.4218
     33 H6          3.1184   -2.3636    1.1626 H         1 <0>         0.1287
     34 H7          2.1567   -3.8610    1.1292 H         1 <0>         0.1159
     35 H8          5.0901   -2.6061   -0.4482 H         1 <0>         0.2199
     36 H9          3.2759   -4.6662   -3.6284 H         1 <0>         0.2170
     37 H10        -1.0590   -6.4074    1.5223 H         1 <0>         0.0630
     38 H11         0.7156   -6.5154    1.4361 H         1 <0>         0.0600
     39 H12        -0.0859   -6.2706    3.0064 H         1 <0>         0.1035
     40 H13         0.0822   -1.5259   -2.3464 H         1 <0>         0.1320
     41 H14        -0.6243   -2.0097   -4.6542 H         1 <0>         0.1415
     42 H15        -4.2848   -3.6459   -3.1894 H         1 <0>         0.1476
@<TRIPOS>BOND
     1    1    2 1
     2    1   28 1
     3    1   29 1
     4    1   30 1
     5    2    7 1
     6    2    3 2
     7    3    4 1
     8    3   26 1
     9    4    5 1
    10    4   18 1
    11    4   31 1
    12    5    6 2
    13    5   14 1
    14    6    7 1
    15    6    8 1
    16    7   32 1
    17    8    9 1
    18    8   33 1
    19    8   34 1
    20    9   13 1
    21    9   10 1
    22   10   11 2
    23   10   35 1
    24   11   12 1
    25   12   13 2
    26   12   36 1
    27   14   15 2
    28   14   16 1
    29   16   17 1
    30   17   37 1
    31   17   38 1
    32   17   39 1
    33   18   23 ar
    34   18   19 ar
    35   19   20 ar
    36   19   40 1
    37   20   21 ar
    38   20   41 1
    39   21   22 ar
    40   21   25 1
    41   22   23 ar
    42   22   42 1
    43   23   24 1
    44   26   27 3
@<TRIPOS>MOLECULE
CHEMBL1215621
   42    44     0     0     0
SMALL
USER_CHARGES

@<TRIPOS>ATOM
      1 C1          0.4186    1.4780    0.1344 C.3       1 <0>        -0.1310
      2 C2          0.2150   -0.0135    0.0644 C.2       1 <0>         0.2088
      3 C3         -1.0274   -0.5167    0.1272 C.2       1 <0>        -0.1413
      4 C4         -1.2776   -1.9969    0.0702 C.3       1 <0>         0.0790
      5 C5         -0.0668   -2.7224   -0.4442 C.2       1 <0>        -0.1707
      6 C6          1.1407   -2.1316   -0.4840 C.2       1 <0>         0.1591
      7 N1          1.3021   -0.8406   -0.0685 N.pl3     1 <0>        -0.6281
      8 C7          2.3296   -2.9014   -0.9988 C.3       1 <0>         0.1605
      9 N2          2.5382   -2.5884   -2.4147 N.pl3     1 <0>        -0.3905
     10 C8          3.6697   -2.1350   -2.9814 C.2       1 <0>         0.2546
     11 N3          3.4490   -1.9810   -4.2618 N.2       1 <0>        -0.5380
     12 C9          2.1939   -2.3243   -4.5486 C.2       1 <0>         0.2008
     13 N4          1.5975   -2.7082   -3.4507 N.2       1 <0>        -0.2890
     14 C10        -0.1995   -4.0552   -0.8958 C.2       1 <0>         0.5163
     15 O1         -0.6519   -4.2804   -2.0028 O.2       1 <0>        -0.4628
     16 O2          0.1755   -5.0781   -0.0992 O.3       1 <0>        -0.3524
     17 C11         0.0135   -6.3990   -0.6199 C.3       1 <0>         0.0312
     18 C12        -1.6059   -2.4981    1.4530 C.ar      1 <0>        -0.0870
     19 C13        -0.6919   -2.3443    2.4787 C.ar      1 <0>        -0.0550
     20 C14        -0.9917   -2.8034    3.7470 C.ar      1 <0>        -0.1456
     21 C15        -2.2085   -3.4181    3.9913 C.ar      1 <0>         0.1174
     22 C16        -3.1238   -3.5717    2.9644 C.ar      1 <0>        -0.1443
     23 C17        -2.8242   -3.1067    1.6965 C.ar      1 <0>        -0.0013
     24 Cl1        -3.9739   -3.2934    0.4093 Cl        1 <0>        -0.0464
     25 F1         -2.5017   -3.8679    5.2310 F         1 <0>        -0.1301
     26 C18        -2.1393    0.3771    0.2519 C.1       1 <0>         0.2617
     27 N5         -3.0213    1.0861    0.3507 N.1       1 <0>        -0.4142
     28 H1          1.4827    1.7032    0.0640 H         1 <0>         0.0824
     29 H2         -0.1093    1.9559   -0.6908 H         1 <0>         0.0938
     30 H3          0.0296    1.8537    1.0808 H         1 <0>         0.0942
     31 H4         -2.1213   -2.1929   -0.5915 H         1 <0>         0.1062
     32 H5          2.1899   -0.5084    0.1374 H         1 <0>         0.4225
     33 H6          3.2169   -2.6224   -0.4305 H         1 <0>         0.1272
     34 H7          2.1471   -3.9701   -0.8860 H         1 <0>         0.1163
     35 H8          4.5987   -1.9326   -2.4692 H         1 <0>         0.2201
     36 H9          1.7437   -2.2943   -5.5298 H         1 <0>         0.2181
     37 H10        -1.0384   -6.5740   -0.8457 H         1 <0>         0.0628
     38 H11         0.6031   -6.5055   -1.5304 H         1 <0>         0.0602
     39 H12         0.3521   -7.1250    0.1193 H         1 <0>         0.1036
     40 H13         0.2572   -1.8653    2.2885 H         1 <0>         0.1379
     41 H14        -0.2771   -2.6833    4.5478 H         1 <0>         0.1445
     42 H15        -4.0728   -4.0512    3.1538 H         1 <0>         0.1486
@<TRIPOS>BOND
     1    1    2 1
     2    1   28 1
     3    1   29 1
     4    1   30 1
     5    2    7 1
     6    2    3 2
     7    3    4 1
     8    3   26 1
     9    4    5 1
    10    4   18 1
    11    4   31 1
    12    5    6 2
    13    5   14 1
    14    6    7 1
    15    6    8 1
    16    7   32 1
    17    8    9 1
    18    8   33 1
    19    8   34 1
    20    9   13 1
    21    9   10 1
    22   10   11 2
    23   10   35 1
    24   11   12 1
    25   12   13 2
    26   12   36 1
    27   14   15 2
    28   14   16 1
    29   16   17 1
    30   17   37 1
    31   17   38 1
    32   17   39 1
    33   18   23 ar
    34   18   19 ar
    35   19   20 ar
    36   19   40 1
    37   20   21 ar
    38   20   41 1
    39   21   22 ar
    40   21   25 1
    41   22   23 ar
    42   22   42 1
    43   23   24 1
    44   26   27 3
@<TRIPOS>MOLECULE
CHEMBL502092
   81    86     0     0     0
SMALL
USER_CHARGES

@<TRIPOS>ATOM
      1 C1          0.1710    1.0706    0.1810 C.3       1 <0>        -0.1097
      2 C2          0.1629   -0.4361    0.2125 C.ar      1 <0>         0.0096
      3 C3          0.1804   -1.1438   -0.9558 C.ar      1 <0>        -0.1943
      4 C4          0.1731   -2.5367   -0.9409 C.ar      1 <0>         0.2395
      5 C5          0.1478   -3.2228    0.2631 C.ar      1 <0>        -0.2124
      6 C6          0.1298   -2.5157    1.4557 C.ar      1 <0>         0.1012
      7 C7          0.1431   -1.1098    1.4375 C.ar      1 <0>         0.0127
      8 N1          0.1281   -0.6911    2.7286 N.2       1 <0>        -0.5155
      9 C8          0.1121   -1.7313    3.5295 C.2       1 <0>         0.3711
     10 N2          0.1034   -2.8856    2.7884 N.pl3     1 <0>        -0.5880
     11 H1          0.0920   -3.7918    3.1343 H         1 <0>         0.4311
     12 C9          0.0936   -1.6682    5.0003 C.2       1 <0>        -0.2937
     13 C10        -0.0282   -0.4376    5.6609 C.2       1 <0>         0.3528
     14 C11        -0.0421   -0.4227    7.0685 C.2       1 <0>        -0.2714
     15 C12         0.0610   -1.5804    7.7563 C.2       1 <0>         0.1815
     16 N3          0.1796   -2.7734    7.1163 N.am      1 <0>        -0.6203
     17 H2          0.2521   -3.5879    7.6380 H         1 <0>         0.4188
     18 C13         0.1925   -2.8473    5.7724 C.2       1 <0>         0.5550
     19 O1          0.2947   -3.9309    5.2215 O.2       1 <0>        -0.5663
     20 N4         -0.1321    0.7365    4.9450 N.pl3     1 <0>        -0.6862
     21 C14        -0.1380    2.0233    5.6452 C.3       1 <0>         0.0781
     22 C15        -0.2622    3.1578    4.6263 C.3       1 <0>         0.1422
     23 H3          0.5327    3.0696    3.8857 H         1 <0>         0.1199
     24 C16        -0.1450    4.4833    5.3336 C.ar      1 <0>        -0.1059
     25 C17        -1.2340    5.0069    6.0056 C.ar      1 <0>        -0.1059
     26 C18        -1.1273    6.2225    6.6546 C.ar      1 <0>        -0.1012
     27 C19         0.0684    6.9159    6.6317 C.ar      1 <0>        -0.1059
     28 C20         1.1583    6.3927    5.9595 C.ar      1 <0>        -0.0315
     29 C21         1.0526    5.1727    5.3151 C.ar      1 <0>        -0.0969
     30 Cl1         2.6602    7.2628    5.9304 Cl        1 <0>        -0.0632
     31 O2         -1.5314    3.0761    3.9748 O.3       1 <0>        -0.5410
     32 N5          0.1908   -3.2459   -2.1462 N.pl3     1 <0>        -0.6262
     33 C22         0.3085   -4.7105   -2.1514 C.3       1 <0>         0.1225
     34 C23        -0.8432   -5.2948   -2.9752 C.3       1 <0>        -0.1265
     35 C24        -0.8430   -4.6593   -4.3675 C.3       1 <0>         0.0888
     36 C25        -1.0572   -3.1493   -4.2409 C.3       1 <0>        -0.1699
     37 C26         0.0860   -2.5411   -3.4312 C.3       1 <0>         0.1288
     38 N6         -1.9259   -5.2416   -5.1714 N.3       1 <0>        -0.5311
     39 C27        -3.2415   -4.8753   -4.6271 C.3       1 <0>         0.0198
     40 C28        -4.3369   -5.5500   -5.4571 C.3       1 <0>         0.0903
     41 H4         -4.2454   -6.6326   -5.3692 H         1 <0>         0.0652
     42 O3         -4.1927   -5.1683   -6.8278 O.3       1 <0>        -0.3797
     43 C29        -2.9230   -5.5105   -7.3902 C.3       1 <0>         0.0906
     44 H5         -2.7905   -6.5919   -7.3585 H         1 <0>         0.0658
     45 C30        -1.8133   -4.8354   -6.5798 C.3       1 <0>         0.0221
     46 C31        -2.8611   -5.0305   -8.8417 C.3       1 <0>        -0.1453
     47 C32        -5.7099   -5.1100   -4.9451 C.3       1 <0>        -0.1455
     48 H6          1.2006    1.4285    0.1871 H         1 <0>         0.0697
     49 H7         -0.3290    1.4178   -0.7231 H         1 <0>         0.0637
     50 H8         -0.3525    1.4551    1.0563 H         1 <0>         0.0735
     51 H9          0.1998   -0.6187   -1.8994 H         1 <0>         0.1273
     52 H10         0.1418   -4.3028    0.2723 H         1 <0>         0.1209
     53 H11        -0.1347    0.5140    7.5980 H         1 <0>         0.1521
     54 H12         0.0493   -1.5577    8.8360 H         1 <0>         0.1722
     55 H13        -0.2013    0.7103    3.9778 H         1 <0>         0.4343
     56 H14        -0.9827    2.0587    6.3332 H         1 <0>         0.0759
     57 H15         0.7909    2.1370    6.2042 H         1 <0>         0.0831
     58 H16        -2.1686    4.4658    6.0232 H         1 <0>         0.1286
     59 H17        -1.9783    6.6310    7.1794 H         1 <0>         0.1361
     60 H18         0.1515    7.8661    7.1382 H         1 <0>         0.1360
     61 H19         1.9045    4.7615    4.7939 H         1 <0>         0.1367
     62 H20        -2.2867    3.1473    4.5746 H         1 <0>         0.3756
     63 H21         1.2602   -4.9990   -2.5977 H         1 <0>         0.0631
     64 H22         0.2534   -5.0850   -1.1292 H         1 <0>         0.0860
     65 H23        -0.7140   -6.3732   -3.0675 H         1 <0>         0.0816
     66 H24        -1.7900   -5.0825   -2.4786 H         1 <0>         0.0675
     67 H25         0.1135   -4.8509   -4.8539 H         1 <0>         0.0844
     68 H26        -1.0802   -2.7006   -5.2340 H         1 <0>         0.0727
     69 H27        -2.0020   -2.9572   -3.7324 H         1 <0>         0.0718
     70 H28        -0.1158   -1.4849   -3.2532 H         1 <0>         0.0844
     71 H29         1.0191   -2.6488   -3.9842 H         1 <0>         0.0614
     72 H30        -3.3125   -5.2081   -3.5916 H         1 <0>         0.0860
     73 H31        -3.3655   -3.7933   -4.6717 H         1 <0>         0.0478
     74 H32        -1.9144   -3.7528   -6.6556 H         1 <0>         0.0456
     75 H33        -0.8418   -5.1390   -6.9697 H         1 <0>         0.0847
     76 H34        -2.9922   -3.9488   -8.8726 H         1 <0>         0.0623
     77 H35        -1.8933   -5.2916   -9.2697 H         1 <0>         0.0726
     78 H36        -3.6538   -5.5091   -9.4167 H         1 <0>         0.0669
     79 H37        -5.8013   -4.0276   -5.0347 H         1 <0>         0.0623
     80 H38        -6.4893   -5.5907   -5.5364 H         1 <0>         0.0669
     81 H39        -5.8172   -5.3984   -3.8994 H         1 <0>         0.0722
@<TRIPOS>BOND
     1    1    2 1
     2    1   48 1
     3    1   49 1
     4    1   50 1
     5    2    7 ar
     6    2    3 ar
     7    3    4 ar
     8    3   51 1
     9    4    5 ar
    10    4   32 1
    11    5    6 ar
    12    5   52 1
    13    6   10 1
    14    6    7 ar
    15    7    8 1
    16    8    9 2
    17    9   10 1
    18    9   12 1
    19   10   11 1
    20   12   18 1
    21   12   13 2
    22   13   14 1
    23   13   20 1
    24   14   15 2
    25   14   53 1
    26   15   16 1
    27   15   54 1
    28   16   17 1
    29   16   18 am
    30   18   19 2
    31   20   21 1
    32   20   55 1
    33   21   22 1
    34   21   56 1
    35   21   57 1
    36   22   23 1
    37   22   24 1
    38   22   31 1
    39   24   29 ar
    40   24   25 ar
    41   25   26 ar
    42   25   58 1
    43   26   27 ar
    44   26   59 1
    45   27   28 ar
    46   27   60 1
    47   28   29 ar
    48   28   30 1
    49   29   61 1
    50   31   62 1
    51   32   37 1
    52   32   33 1
    53   33   34 1
    54   33   63 1
    55   33   64 1
    56   34   35 1
    57   34   65 1
    58   34   66 1
    59   35   36 1
    60   35   38 1
    61   35   67 1
    62   36   37 1
    63   36   68 1
    64   36   69 1
    65   37   70 1
    66   37   71 1
    67   38   45 1
    68   38   39 1
    69   39   40 1
    70   39   72 1
    71   39   73 1
    72   40   41 1
    73   40   42 1
    74   40   47 1
    75   42   43 1
    76   43   44 1
    77   43   45 1
    78   43   46 1
    79   45   74 1
    80   45   75 1
    81   46   76 1
    82   46   77 1
    83   46   78 1
    84   47   79 1
    85   47   80 1
    86   47   81 1
@<TRIPOS>MOLECULE
CHEMBL502092
   82    87     0     0     0
SMALL
USER_CHARGES

@<TRIPOS>ATOM
      1 C1          0.1710    1.0706    0.1810 C.3       1 <0>        -0.1136
      2 C2          0.1629   -0.4361    0.2125 C.ar      1 <0>         0.0130
      3 C3          0.1804   -1.1438   -0.9558 C.ar      1 <0>        -0.1923
      4 C4          0.1731   -2.5367   -0.9409 C.ar      1 <0>         0.2198
      5 C5          0.1478   -3.2228    0.2631 C.ar      1 <0>        -0.1985
      6 C6          0.1298   -2.5157    1.4557 C.ar      1 <0>         0.0931
      7 C7          0.1431   -1.1098    1.4375 C.ar      1 <0>         0.0266
      8 N1          0.1281   -0.6911    2.7286 N.2       1 <0>        -0.5191
      9 C8          0.1121   -1.7313    3.5295 C.2       1 <0>         0.3877
     10 N2          0.1034   -2.8856    2.7884 N.pl3     1 <0>        -0.5871
     11 H1          0.0920   -3.7918    3.1343 H         1 <0>         0.4329
     12 C9          0.0936   -1.6682    5.0003 C.2       1 <0>        -0.3049
     13 C10        -0.0282   -0.4376    5.6609 C.2       1 <0>         0.3600
     14 C11        -0.0421   -0.4227    7.0685 C.2       1 <0>        -0.2739
     15 C12         0.0610   -1.5804    7.7563 C.2       1 <0>         0.1882
     16 N3          0.1796   -2.7734    7.1163 N.am      1 <0>        -0.6200
     17 H2          0.2521   -3.5879    7.6380 H         1 <0>         0.4206
     18 C13         0.1925   -2.8473    5.7724 C.2       1 <0>         0.5579
     19 O1          0.2947   -3.9309    5.2215 O.2       1 <0>        -0.5695
     20 N4         -0.1321    0.7365    4.9450 N.pl3     1 <0>        -0.6840
     21 C14        -0.1380    2.0233    5.6452 C.3       1 <0>         0.0756
     22 C15        -0.2622    3.1578    4.6263 C.3       1 <0>         0.1440
     23 H3          0.5327    3.0696    3.8857 H         1 <0>         0.1191
     24 C16        -0.1450    4.4833    5.3336 C.ar      1 <0>        -0.1091
     25 C17        -1.2340    5.0069    6.0056 C.ar      1 <0>        -0.1062
     26 C18        -1.1273    6.2225    6.6546 C.ar      1 <0>        -0.1003
     27 C19         0.0684    6.9159    6.6317 C.ar      1 <0>        -0.1041
     28 C20         1.1583    6.3927    5.9595 C.ar      1 <0>        -0.0314
     29 C21         1.0526    5.1727    5.3151 C.ar      1 <0>        -0.0972
     30 Cl1         2.6602    7.2628    5.9304 Cl        1 <0>        -0.0609
     31 O2         -1.5314    3.0761    3.9748 O.3       1 <0>        -0.5433
     32 N5          0.1908   -3.2459   -2.1462 N.pl3     1 <0>        -0.6343
     33 C22         0.3085   -4.7105   -2.1514 C.3       1 <0>         0.1275
     34 C23        -0.8432   -5.2948   -2.9752 C.3       1 <0>        -0.1591
     35 C24        -0.8430   -4.6593   -4.3675 C.3       1 <0>         0.0280
     36 C25        -1.0572   -3.1493   -4.2409 C.3       1 <0>        -0.1590
     37 C26         0.0860   -2.5411   -3.4312 C.3       1 <0>         0.1291
     38 N6         -1.9259   -5.2416   -5.1714 N.4       1 <0>        -0.3836
     39 C27        -1.9253   -4.6325   -6.5086 C.3       1 <0>        -0.0454
     40 C28        -3.0545   -5.2406   -7.3441 C.3       1 <0>         0.0707
     41 H4         -4.0140   -5.0143   -6.8790 H         1 <0>         0.0854
     42 O3         -2.8795   -6.6585   -7.4126 O.3       1 <0>        -0.3532
     43 C29        -2.8493   -7.2955   -6.1323 C.3       1 <0>         0.0709
     44 H5         -3.8017   -7.1396   -5.6257 H         1 <0>         0.0853
     45 C30        -1.7197   -6.6912   -5.2945 C.3       1 <0>        -0.0455
     46 C31        -2.6064   -8.7952   -6.3134 C.3       1 <0>        -0.1508
     47 C32        -3.0197   -4.6517   -8.7558 C.3       1 <0>        -0.1508
     48 H6          1.2006    1.4285    0.1871 H         1 <0>         0.0735
     49 H7         -0.3290    1.4178   -0.7231 H         1 <0>         0.0652
     50 H8         -0.3525    1.4551    1.0563 H         1 <0>         0.0767
     51 H9          0.1998   -0.6187   -1.8994 H         1 <0>         0.1274
     52 H10         0.1418   -4.3028    0.2723 H         1 <0>         0.1198
     53 H11        -0.1347    0.5140    7.5980 H         1 <0>         0.1545
     54 H12         0.0493   -1.5577    8.8360 H         1 <0>         0.1751
     55 H13        -0.2013    0.7103    3.9778 H         1 <0>         0.4332
     56 H14        -0.9827    2.0587    6.3332 H         1 <0>         0.0783
     57 H15         0.7909    2.1370    6.2042 H         1 <0>         0.0855
     58 H16        -2.1686    4.4658    6.0232 H         1 <0>         0.1282
     59 H17        -1.9783    6.6310    7.1794 H         1 <0>         0.1370
     60 H18         0.1515    7.8661    7.1382 H         1 <0>         0.1373
     61 H19         1.9045    4.7615    4.7939 H         1 <0>         0.1361
     62 H20        -2.2867    3.1473    4.5746 H         1 <0>         0.3766
     63 H21         1.2602   -4.9990   -2.5977 H         1 <0>         0.0732
     64 H22         0.2534   -5.0850   -1.1292 H         1 <0>         0.1034
     65 H23        -0.7140   -6.3732   -3.0675 H         1 <0>         0.0967
     66 H24        -1.7900   -5.0825   -2.4786 H         1 <0>         0.0920
     67 H25         0.1135   -4.8509   -4.8539 H         1 <0>         0.1385
     68 H26        -1.0802   -2.7006   -5.2340 H         1 <0>         0.0978
     69 H27        -2.0020   -2.9572   -3.7324 H         1 <0>         0.0923
     70 H28        -0.1158   -1.4849   -3.2532 H         1 <0>         0.1053
     71 H29         1.0191   -2.6488   -3.9842 H         1 <0>         0.0725
     72 H30        -2.0783   -3.5571   -6.4184 H         1 <0>         0.1436
     73 H31        -0.9690   -4.8245   -6.9952 H         1 <0>         0.1389
     74 H32        -0.7635   -6.8824   -5.7816 H         1 <0>         0.1389
     75 H33        -1.7201   -7.1441   -4.3031 H         1 <0>         0.1432
     76 H34        -1.6531   -8.9505   -6.8186 H         1 <0>         0.0767
     77 H35        -2.5835   -9.2800   -5.3374 H         1 <0>         0.0864
     78 H36        -3.4095   -9.2235   -6.9131 H         1 <0>         0.0874
     79 H37        -2.0606   -4.8797   -9.2210 H         1 <0>         0.0767
     80 H38        -3.8240   -5.0851   -9.3503 H         1 <0>         0.0872
     81 H39        -3.1495   -3.5708   -8.7020 H         1 <0>         0.0866
     82 H40        -2.8115   -5.0647   -4.7214 H         1 <0>         0.4202
@<TRIPOS>BOND
     1    1    2 1
     2    1   48 1
     3    1   49 1
     4    1   50 1
     5    2    7 ar
     6    2    3 ar
     7    3    4 ar
     8    3   51 1
     9    4    5 ar
    10    4   32 1
    11    5    6 ar
    12    5   52 1
    13    6   10 1
    14    6    7 ar
    15    7    8 1
    16    8    9 2
    17    9   10 1
    18    9   12 1
    19   10   11 1
    20   12   18 1
    21   12   13 2
    22   13   14 1
    23   13   20 1
    24   14   15 2
    25   14   53 1
    26   15   16 1
    27   15   54 1
    28   16   17 1
    29   16   18 am
    30   18   19 2
    31   20   21 1
    32   20   55 1
    33   21   22 1
    34   21   56 1
    35   21   57 1
    36   22   23 1
    37   22   24 1
    38   22   31 1
    39   24   29 ar
    40   24   25 ar
    41   25   26 ar
    42   25   58 1
    43   26   27 ar
    44   26   59 1
    45   27   28 ar
    46   27   60 1
    47   28   29 ar
    48   28   30 1
    49   29   61 1
    50   31   62 1
    51   32   37 1
    52   32   33 1
    53   33   34 1
    54   33   63 1
    55   33   64 1
    56   34   35 1
    57   34   65 1
    58   34   66 1
    59   35   36 1
    60   35   38 1
    61   35   67 1
    62   36   37 1
    63   36   68 1
    64   36   69 1
    65   37   70 1
    66   37   71 1
    67   38   45 1
    68   38   39 1
    69   38   82 1
    70   39   40 1
    71   39   72 1
    72   39   73 1
    73   40   41 1
    74   40   42 1
    75   40   47 1
    76   42   43 1
    77   43   44 1
    78   43   45 1
    79   43   46 1
    80   45   74 1
    81   45   75 1
    82   46   76 1
    83   46   77 1
    84   46   78 1
    85   47   79 1
    86   47   80 1
    87   47   81 1
@<TRIPOS>MOLECULE
CHEMBL482101
   68    73     0     0     0
SMALL
USER_CHARGES

@<TRIPOS>ATOM
      1 C1          0.1690    1.0800    0.1774 C.3       1 <0>        -0.1095
      2 C2          0.1606   -0.4267    0.2079 C.ar      1 <0>         0.0098
      3 C3          0.1779   -1.1337   -0.9608 C.ar      1 <0>        -0.1938
      4 C4          0.1704   -2.5265   -0.9467 C.ar      1 <0>         0.2398
      5 C5          0.1452   -3.2134    0.2569 C.ar      1 <0>        -0.2128
      6 C6          0.1274   -2.5070    1.4498 C.ar      1 <0>         0.1016
      7 C7          0.1409   -1.1011    1.4325 C.ar      1 <0>         0.0124
      8 N1          0.1261   -0.6831    2.7239 N.2       1 <0>        -0.5152
      9 C8          0.1101   -1.7238    3.5241 C.2       1 <0>         0.3704
     10 N2          0.1012   -2.8777    2.7823 N.pl3     1 <0>        -0.5881
     11 H1          0.0897   -3.7841    3.1277 H         1 <0>         0.4310
     12 C9          0.0919   -1.6617    4.9950 C.2       1 <0>        -0.2932
     13 C10        -0.0296   -0.4314    5.6563 C.2       1 <0>         0.3526
     14 C11        -0.0433   -0.4173    7.0639 C.2       1 <0>        -0.2713
     15 C12         0.0596   -1.5755    7.7511 C.2       1 <0>         0.1812
     16 N3          0.1777   -2.7682    7.1103 N.am      1 <0>        -0.6204
     17 H2          0.2501   -3.5830    7.6316 H         1 <0>         0.4187
     18 C13         0.1905   -2.8412    5.7663 C.2       1 <0>         0.5549
     19 O1          0.2924   -3.9245    5.2148 O.2       1 <0>        -0.5662
     20 N4         -0.1333    0.7431    4.9412 N.pl3     1 <0>        -0.6862
     21 C14        -0.1388    2.0295    5.6422 C.3       1 <0>         0.0782
     22 C15        -0.2628    3.1647    4.6239 C.3       1 <0>         0.1421
     23 H3          0.5320    3.0768    3.8832 H         1 <0>         0.1200
     24 C16        -0.1452    4.4898    5.3320 C.ar      1 <0>        -0.1058
     25 C17        -1.2341    5.0131    6.0044 C.ar      1 <0>        -0.1059
     26 C18        -1.1271    6.2284    6.6541 C.ar      1 <0>        -0.1012
     27 C19         0.0687    6.9215    6.6316 C.ar      1 <0>        -0.1060
     28 C20         1.1585    6.3984    5.9591 C.ar      1 <0>        -0.0315
     29 C21         1.0525    5.1788    5.3139 C.ar      1 <0>        -0.0968
     30 Cl1         2.6606    7.2683    5.9304 Cl        1 <0>        -0.0634
     31 O2         -1.5321    3.0837    3.9725 O.3       1 <0>        -0.5409
     32 N5          0.1879   -3.2351   -2.1525 N.pl3     1 <0>        -0.6267
     33 C22         0.0889   -2.5291   -3.4372 C.3       1 <0>         0.1305
     34 C23        -1.0642   -3.1337   -4.2445 C.3       1 <0>        -0.1526
     35 C24        -0.8587   -4.6447   -4.3677 C.3       1 <0>         0.2604
     36 C25        -0.8490   -5.2842   -2.9779 C.3       1 <0>        -0.1363
     37 C26         0.3117   -4.6991   -2.1588 C.3       1 <0>         0.1294
     38 O3          0.3850   -4.9092   -5.0286 O.3       1 <0>        -0.3731
     39 C27         0.0815   -5.6327   -6.2385 C.3       1 <0>         0.0199
     40 C28        -1.4052   -5.2802   -6.4942 C.3       1 <0>         0.0146
     41 O4         -1.9270   -5.2095   -5.1454 O.3       1 <0>        -0.3717
     42 H4          1.1985    1.4378    0.1835 H         1 <0>         0.0696
     43 H5         -0.3312    1.4279   -0.7265 H         1 <0>         0.0640
     44 H6         -0.3544    1.4641    1.0529 H         1 <0>         0.0733
     45 H7          0.1972   -0.6081   -1.9041 H         1 <0>         0.1284
     46 H8          0.1390   -4.2934    0.2654 H         1 <0>         0.1211
     47 H9         -0.1356    0.5191    7.5941 H         1 <0>         0.1520
     48 H10         0.0480   -1.5534    8.8308 H         1 <0>         0.1721
     49 H11        -0.2025    0.7176    3.9740 H         1 <0>         0.4344
     50 H12        -0.9835    2.0647    6.3302 H         1 <0>         0.0758
     51 H13         0.7901    2.1427    6.2011 H         1 <0>         0.0830
     52 H14        -2.1688    4.4723    6.0217 H         1 <0>         0.1287
     53 H15        -1.9780    6.6367    7.1792 H         1 <0>         0.1360
     54 H16         0.1521    7.8714    7.1387 H         1 <0>         0.1360
     55 H17         1.9042    4.7678    4.7924 H         1 <0>         0.1368
     56 H18        -2.2873    3.1547    4.5723 H         1 <0>         0.3755
     57 H19        -0.1049   -1.4714   -3.2590 H         1 <0>         0.0882
     58 H20         1.0214   -2.6437   -3.9900 H         1 <0>         0.0703
     59 H21        -2.0076   -2.9352   -3.7358 H         1 <0>         0.0854
     60 H22        -1.0856   -2.6872   -5.2387 H         1 <0>         0.0796
     61 H23        -1.7934   -5.0760   -2.4751 H         1 <0>         0.0845
     62 H24        -0.7176   -6.3619   -3.0743 H         1 <0>         0.0830
     63 H25         1.2616   -4.9836   -2.6113 H         1 <0>         0.0714
     64 H26         0.2648   -5.0742   -1.1365 H         1 <0>         0.0884
     65 H27         0.7066   -5.2863   -7.0616 H         1 <0>         0.1008
     66 H28         0.2024   -6.7053   -6.0866 H         1 <0>         0.0767
     67 H29        -1.4970   -4.3185   -6.9990 H         1 <0>         0.0763
     68 H30        -1.9004   -6.0668   -7.0635 H         1 <0>         0.1096
@<TRIPOS>BOND
     1    1    2 1
     2    1   42 1
     3    1   43 1
     4    1   44 1
     5    2    7 ar
     6    2    3 ar
     7    3    4 ar
     8    3   45 1
     9    4    5 ar
    10    4   32 1
    11    5    6 ar
    12    5   46 1
    13    6   10 1
    14    6    7 ar
    15    7    8 1
    16    8    9 2
    17    9   10 1
    18    9   12 1
    19   10   11 1
    20   12   18 1
    21   12   13 2
    22   13   14 1
    23   13   20 1
    24   14   15 2
    25   14   47 1
    26   15   16 1
    27   15   48 1
    28   16   17 1
    29   16   18 am
    30   18   19 2
    31   20   21 1
    32   20   49 1
    33   21   22 1
    34   21   50 1
    35   21   51 1
    36   22   23 1
    37   22   24 1
    38   22   31 1
    39   24   29 ar
    40   24   25 ar
    41   25   26 ar
    42   25   52 1
    43   26   27 ar
    44   26   53 1
    45   27   28 ar
    46   27   54 1
    47   28   29 ar
    48   28   30 1
    49   29   55 1
    50   31   56 1
    51   32   37 1
    52   32   33 1
    53   33   34 1
    54   33   57 1
    55   33   58 1
    56   34   35 1
    57   34   59 1
    58   34   60 1
    59   35   41 1
    60   35   36 1
    61   35   38 1
    62   36   37 1
    63   36   61 1
    64   36   62 1
    65   37   63 1
    66   37   64 1
    67   38   39 1
    68   39   40 1
    69   39   65 1
    70   39   66 1
    71   40   41 1
    72   40   67 1
    73   40   68 1
@<TRIPOS>MOLECULE
CHEMBL557263
   72    76     0     0     0
SMALL
USER_CHARGES

@<TRIPOS>ATOM
      1 C1         -0.0167    1.3781    0.0096 C.ar      1 <0>        -0.0981
      2 C2          1.1709    2.0855    0.0021 C.ar      1 <0>        -0.1123
      3 C3          2.3773    1.4107   -0.0130 C.ar      1 <0>        -0.0938
      4 C4          2.3960    0.0285   -0.0201 C.ar      1 <0>        -0.1253
      5 C5          1.2084   -0.6789   -0.0117 C.ar      1 <0>        -0.1017
      6 C6          0.0021   -0.0041    0.0020 C.ar      1 <0>        -0.1171
      7 C7          3.7112   -0.7071   -0.0376 C.3       1 <0>         0.1989
      8 C8          4.0191   -1.1676   -1.4638 C.3       1 <0>         0.0858
      9 N1          5.3507   -1.7770   -1.5034 N.pl3     1 <0>        -0.4047
     10 C9          6.5333   -1.1300   -1.7414 C.2       1 <0>         0.0310
     11 C10         7.5047   -2.0611   -1.6864 C.2       1 <0>         0.0079
     12 N2          6.9310   -3.2443   -1.4221 N.pl3     1 <0>        -0.4729
     13 C11         5.6414   -3.0810   -1.3062 C.cat     1 <0>         0.2790
     14 N3          3.6301   -1.8734    0.8453 N.am      1 <0>        -0.7474
     15 C12         3.8709   -1.7379    2.1645 C.2       1 <0>         0.7100
     16 O1          4.1554   -0.6478    2.6218 O.2       1 <0>        -0.5631
     17 N4          3.7963   -2.8108    2.9768 N.am      1 <0>        -0.7406
     18 C13         4.0580   -2.6636    4.4107 C.3       1 <0>         0.1542
     19 C14         5.5637   -2.7678    4.6697 C.3       1 <0>        -0.1566
     20 C15         5.8230   -2.6929    6.1759 C.3       1 <0>        -0.0045
     21 N5          5.1313   -3.7979    6.8506 N.4       1 <0>        -0.3829
     22 C16         3.6812   -3.6642    6.6666 C.3       1 <0>        -0.0043
     23 C17         3.3396   -3.7765    5.1792 C.3       1 <0>        -0.1535
     24 C18         5.4462   -3.7675    8.2852 C.3       1 <0>         0.0795
     25 C19         4.8376   -4.9705    8.9586 C.2       1 <0>        -0.2345
     26 C20         3.5479   -5.0470    9.5219 C.2       1 <0>        -0.1743
     27 C21         3.3967   -6.2913   10.0195 C.2       1 <0>         0.0120
     28 N6          4.5477   -6.9876    9.7839 N.pl3     1 <0>        -0.3826
     29 C22         5.4250   -6.1725    9.1274 C.2       1 <0>         0.0392
     30 C23         4.7869   -8.3196   10.1505 C.ar      1 <0>         0.1465
     31 C24         6.0071   -8.9132    9.8573 C.ar      1 <0>        -0.1349
     32 C25         6.2400  -10.2254   10.2201 C.ar      1 <0>        -0.0393
     33 C26         5.2593  -10.9477   10.8748 C.ar      1 <0>        -0.1783
     34 C27         4.0428  -10.3592   11.1677 C.ar      1 <0>        -0.0366
     35 C28         3.8061   -9.0456   10.8125 C.ar      1 <0>        -0.1292
     36 C29         5.5166  -12.3792   11.2693 C.3       1 <0>         0.5080
     37 F1          6.0726  -12.4165   12.5525 F         1 <0>        -0.1693
     38 F2          4.3109  -13.0887   11.2626 F         1 <0>        -0.1712
     39 F3          6.4052  -12.9613   10.3589 F         1 <0>        -0.1728
     40 H1         -0.9591    1.9053    0.0259 H         1 <0>         0.1310
     41 H2          1.1563    3.1654    0.0076 H         1 <0>         0.1319
     42 H3          3.3051    1.9634   -0.0196 H         1 <0>         0.1256
     43 H4          1.2231   -1.7588   -0.0176 H         1 <0>         0.1162
     44 H5         -0.9258   -0.5567    0.0082 H         1 <0>         0.1283
     45 H6          4.5034   -0.0434    0.3089 H         1 <0>         0.1156
     46 H7          3.2750   -1.8996   -1.7778 H         1 <0>         0.1307
     47 H8          3.9917   -0.3102   -2.1363 H         1 <0>         0.1477
     48 H9          6.6624   -0.0756   -1.9361 H         1 <0>         0.2260
     49 H10         8.5607   -1.8858   -1.8300 H         1 <0>         0.2261
     50 H11         4.9251   -3.8600   -1.0908 H         1 <0>         0.2540
     51 H12         3.4032   -2.7430    0.4805 H         1 <0>         0.3941
     52 H13         3.5693   -3.6805    2.6119 H         1 <0>         0.4006
     53 H14         3.6949   -1.6934    4.7497 H         1 <0>         0.1086
     54 H15         5.9348   -3.7171    4.2833 H         1 <0>         0.0861
     55 H16         6.0766   -1.9455    4.1708 H         1 <0>         0.1135
     56 H17         6.8941   -2.7666    6.3639 H         1 <0>         0.1350
     57 H18         5.4518   -1.7432    6.5613 H         1 <0>         0.1340
     58 H19         3.1712   -4.4549    7.2167 H         1 <0>         0.1425
     59 H20         3.3558   -2.6938    7.0414 H         1 <0>         0.1326
     60 H21         2.2627   -3.6752    5.0445 H         1 <0>         0.1184
     61 H22         3.6644   -4.7467    4.8034 H         1 <0>         0.0913
     62 H23         6.5276   -3.7839    8.4202 H         1 <0>         0.1343
     63 H24         5.0385   -2.8585    8.7275 H         1 <0>         0.1372
     64 H25         2.8151   -4.2542    9.5505 H         1 <0>         0.1543
     65 H26         2.5175   -6.6713   10.5184 H         1 <0>         0.1794
     66 H27         6.4185   -6.4431    8.8016 H         1 <0>         0.1757
     67 H28         6.7733   -8.3497    9.3457 H         1 <0>         0.1418
     68 H29         7.1889  -10.6879    9.9920 H         1 <0>         0.1522
     69 H30         3.2784  -10.9260   11.6785 H         1 <0>         0.1540
     70 H31         2.8575   -8.5850   11.0459 H         1 <0>         0.1468
     71 H32         5.4396   -4.6753    6.4592 H         1 <0>         0.4190
     72 H33         7.4008   -4.0877   -1.3282 H         1 <0>         0.4653
@<TRIPOS>BOND
     1    1    6 ar
     2    1    2 ar
     3    1   40 1
     4    2    3 ar
     5    2   41 1
     6    3    4 ar
     7    3   42 1
     8    4    5 ar
     9    4    7 1
    10    5    6 ar
    11    5   43 1
    12    6   44 1
    13    7    8 1
    14    7   14 1
    15    7   45 1
    16    8    9 1
    17    8   46 1
    18    8   47 1
    19    9   13 1
    20    9   10 1
    21   10   11 2
    22   10   48 1
    23   11   12 1
    24   11   49 1
    25   12   13 2
    26   12   72 1
    27   13   50 1
    28   14   15 am
    29   14   51 1
    30   15   16 2
    31   15   17 am
    32   17   18 1
    33   17   52 1
    34   18   23 1
    35   18   19 1
    36   18   53 1
    37   19   20 1
    38   19   54 1
    39   19   55 1
    40   20   21 1
    41   20   56 1
    42   20   57 1
    43   21   22 1
    44   21   24 1
    45   21   71 1
    46   22   23 1
    47   22   58 1
    48   22   59 1
    49   23   60 1
    50   23   61 1
    51   24   25 1
    52   24   62 1
    53   24   63 1
    54   25   29 2
    55   25   26 1
    56   26   27 2
    57   26   64 1
    58   27   28 1
    59   27   65 1
    60   28   29 1
    61   28   30 1
    62   29   66 1
    63   30   35 ar
    64   30   31 ar
    65   31   32 ar
    66   31   67 1
    67   32   33 ar
    68   32   68 1
    69   33   34 ar
    70   33   36 1
    71   34   35 ar
    72   34   69 1
    73   35   70 1
    74   36   37 1
    75   36   38 1
    76   36   39 1
@<TRIPOS>MOLECULE
CHEMBL557263
   71    75     0     0     0
SMALL
USER_CHARGES

@<TRIPOS>ATOM
      1 C1         -0.0167    1.3781    0.0096 C.ar      1 <0>        -0.1075
      2 C2          1.1709    2.0855    0.0021 C.ar      1 <0>        -0.1115
      3 C3          2.3773    1.4107   -0.0130 C.ar      1 <0>        -0.1005
      4 C4          2.3960    0.0285   -0.0201 C.ar      1 <0>        -0.1064
      5 C5          1.2084   -0.6789   -0.0117 C.ar      1 <0>        -0.1122
      6 C6          0.0021   -0.0041    0.0020 C.ar      1 <0>        -0.1139
      7 C7          3.7112   -0.7071   -0.0376 C.3       1 <0>         0.1988
      8 C8          4.0191   -1.1676   -1.4638 C.3       1 <0>         0.0946
      9 N1          5.3507   -1.7770   -1.5034 N.pl3     1 <0>        -0.4435
     10 C9          6.5332   -1.1301   -1.7418 C.2       1 <0>        -0.0355
     11 C10         7.5047   -2.0611   -1.6867 C.2       1 <0>        -0.0250
     12 N2          6.9310   -3.2443   -1.4218 N.2       1 <0>        -0.4937
     13 C11         5.6415   -3.0809   -1.3057 C.2       1 <0>         0.1845
     14 N3          3.6301   -1.8734    0.8453 N.am      1 <0>        -0.7401
     15 C12         4.7514   -2.3850    1.3907 C.2       1 <0>         0.7035
     16 O1          5.8303   -1.8786    1.1499 O.2       1 <0>        -0.5575
     17 N4          4.6768   -3.4579    2.2029 N.am      1 <0>        -0.7443
     18 C13         5.8957   -4.0140    2.7957 C.3       1 <0>         0.1606
     19 C14         6.5398   -4.9974    1.8143 C.3       1 <0>        -0.1647
     20 C15         7.7673   -5.6337    2.4701 C.3       1 <0>        -0.0011
     21 N5          7.3615   -6.3487    3.6860 N.4       1 <0>        -0.3828
     22 C16         6.8085   -5.4004    4.6604 C.3       1 <0>        -0.0016
     23 C17         5.5441   -4.7551    4.0889 C.3       1 <0>        -0.1542
     24 C18         8.5295   -7.0223    4.2690 C.3       1 <0>         0.0787
     25 C19         8.0930   -7.8559    5.4461 C.2       1 <0>        -0.2293
     26 C20         8.0127   -7.4282    6.7867 C.2       1 <0>        -0.1726
     27 C21         7.5813   -8.4742    7.5202 C.2       1 <0>         0.0089
     28 N6          7.3916   -9.5346    6.6807 N.pl3     1 <0>        -0.3852
     29 C22         7.7020   -9.1460    5.4088 C.2       1 <0>         0.0381
     30 C23         6.9472  -10.8088    7.0607 C.ar      1 <0>         0.1514
     31 C24         6.8007  -11.8073    6.1074 C.ar      1 <0>        -0.1353
     32 C25         6.3631  -13.0618    6.4848 C.ar      1 <0>        -0.0387
     33 C26         6.0711  -13.3237    7.8108 C.ar      1 <0>        -0.1819
     34 C27         6.2156  -12.3311    8.7625 C.ar      1 <0>        -0.0374
     35 C28         6.6583  -11.0763    8.3920 C.ar      1 <0>        -0.1312
     36 C29         5.5939  -14.6936    8.2193 C.3       1 <0>         0.5085
     37 F1          6.6947  -15.4925    8.5466 F         1 <0>        -0.1707
     38 F2          4.7519  -14.5817    9.3309 F         1 <0>        -0.1722
     39 F3          4.8921  -15.2781    7.1596 F         1 <0>        -0.1728
     40 H1         -0.9591    1.9053    0.0259 H         1 <0>         0.1281
     41 H2          1.1563    3.1654    0.0076 H         1 <0>         0.1295
     42 H3          3.3051    1.9634   -0.0196 H         1 <0>         0.1266
     43 H4          1.2231   -1.7588   -0.0176 H         1 <0>         0.1190
     44 H5         -0.9258   -0.5567    0.0082 H         1 <0>         0.1274
     45 H6          4.5034   -0.0434    0.3089 H         1 <0>         0.1059
     46 H7          3.2750   -1.8996   -1.7778 H         1 <0>         0.0962
     47 H8          3.9917   -0.3102   -2.1363 H         1 <0>         0.1054
     48 H9          6.6623   -0.0758   -1.9370 H         1 <0>         0.1676
     49 H10         8.5606   -1.8859   -1.8305 H         1 <0>         0.1632
     50 H11         4.9252   -3.8598   -1.0900 H         1 <0>         0.1826
     51 H12         2.7694   -2.2773    1.0375 H         1 <0>         0.3980
     52 H13         3.8162   -3.8619    2.3950 H         1 <0>         0.3985
     53 H14         6.5945   -3.2071    3.0165 H         1 <0>         0.1034
     54 H15         5.8218   -5.7751    1.5544 H         1 <0>         0.0847
     55 H16         6.8435   -4.4655    0.9127 H         1 <0>         0.1315
     56 H17         8.2284   -6.3342    1.7739 H         1 <0>         0.1340
     57 H18         8.4847   -4.8551    2.7293 H         1 <0>         0.1310
     58 H19         6.5618   -5.9288    5.5813 H         1 <0>         0.1378
     59 H20         7.5464   -4.6268    4.8729 H         1 <0>         0.1299
     60 H21         5.1361   -4.0501    4.8131 H         1 <0>         0.1149
     61 H22         4.8054   -5.5279    3.8762 H         1 <0>         0.0903
     62 H23         8.9899   -7.6655    3.5191 H         1 <0>         0.1337
     63 H24         9.2515   -6.2759    4.6002 H         1 <0>         0.1357
     64 H25         8.2533   -6.4431    7.1584 H         1 <0>         0.1540
     65 H26         7.4148   -8.4736    8.5873 H         1 <0>         0.1781
     66 H27         7.6462   -9.7655    4.5259 H         1 <0>         0.1764
     67 H28         7.0283  -11.6032    5.0715 H         1 <0>         0.1430
     68 H29         6.2486  -13.8389    5.7435 H         1 <0>         0.1517
     69 H30         5.9861  -12.5384    9.7973 H         1 <0>         0.1525
     70 H31         6.7756  -10.3028    9.1365 H         1 <0>         0.1462
     71 H32         6.6609   -7.0364    3.4526 H         1 <0>         0.4190
@<TRIPOS>BOND
     1    1    6 ar
     2    1    2 ar
     3    1   40 1
     4    2    3 ar
     5    2   41 1
     6    3    4 ar
     7    3   42 1
     8    4    5 ar
     9    4    7 1
    10    5    6 ar
    11    5   43 1
    12    6   44 1
    13    7    8 1
    14    7   14 1
    15    7   45 1
    16    8    9 1
    17    8   46 1
    18    8   47 1
    19    9   13 1
    20    9   10 1
    21   10   11 2
    22   10   48 1
    23   11   12 1
    24   11   49 1
    25   12   13 2
    26   13   50 1
    27   14   15 am
    28   14   51 1
    29   15   16 2
    30   15   17 am
    31   17   18 1
    32   17   52 1
    33   18   23 1
    34   18   19 1
    35   18   53 1
    36   19   20 1
    37   19   54 1
    38   19   55 1
    39   20   21 1
    40   20   56 1
    41   20   57 1
    42   21   22 1
    43   21   24 1
    44   21   71 1
    45   22   23 1
    46   22   58 1
    47   22   59 1
    48   23   60 1
    49   23   61 1
    50   24   25 1
    51   24   62 1
    52   24   63 1
    53   25   29 2
    54   25   26 1
    55   26   27 2
    56   26   64 1
    57   27   28 1
    58   27   65 1
    59   28   29 1
    60   28   30 1
    61   29   66 1
    62   30   35 ar
    63   30   31 ar
    64   31   32 ar
    65   31   67 1
    66   32   33 ar
    67   32   68 1
    68   33   34 ar
    69   33   36 1
    70   34   35 ar
    71   34   69 1
    72   35   70 1
    73   36   37 1
    74   36   38 1
    75   36   39 1
@<TRIPOS>MOLECULE
CHEMBL557263
   72    76     0     0     0
SMALL
USER_CHARGES

@<TRIPOS>ATOM
      1 C1         -0.0167    1.3781    0.0096 C.ar      1 <0>        -0.0988
      2 C2          1.1709    2.0855    0.0021 C.ar      1 <0>        -0.1125
      3 C3          2.3773    1.4107   -0.0130 C.ar      1 <0>        -0.0945
      4 C4          2.3960    0.0285   -0.0201 C.ar      1 <0>        -0.1242
      5 C5          1.2084   -0.6789   -0.0117 C.ar      1 <0>        -0.1013
      6 C6          0.0021   -0.0041    0.0020 C.ar      1 <0>        -0.1172
      7 C7          3.7112   -0.7071   -0.0376 C.3       1 <0>         0.1990
      8 C8          4.0489   -1.1818    1.3772 C.3       1 <0>         0.0859
      9 N1          5.3810   -1.7914    1.3828 N.pl3     1 <0>        -0.4088
     10 C9          5.6718   -3.1099    1.1577 C.2       1 <0>         0.0200
     11 C10         7.0090   -3.2362    1.2553 C.2       1 <0>         0.0089
     12 N2          7.5207   -2.0277    1.5324 N.pl3     1 <0>        -0.4742
     13 C11         6.5519   -1.1565    1.6052 C.cat     1 <0>         0.2956
     14 N3          3.6115   -1.8645   -0.9302 N.am      1 <0>        -0.7448
     15 C12         3.8246   -1.7159   -2.2527 C.2       1 <0>         0.7112
     16 O1          4.0995   -0.6212   -2.7049 O.2       1 <0>        -0.5676
     17 N4          3.7329   -2.7806   -3.0739 N.am      1 <0>        -0.7404
     18 C13         3.9645   -2.6191   -4.5114 C.3       1 <0>         0.1561
     19 C14         2.6658   -2.1787   -5.1930 C.3       1 <0>        -0.1603
     20 C15         2.8940   -2.0888   -6.7034 C.3       1 <0>        -0.0039
     21 N5          3.2984   -3.4020   -7.2198 N.4       1 <0>        -0.3833
     22 C16         4.5799   -3.7984   -6.6239 C.3       1 <0>        -0.0033
     23 C17         4.4166   -3.9540   -5.1105 C.3       1 <0>        -0.1531
     24 C18         3.4405   -3.3297   -8.6801 C.3       1 <0>         0.0794
     25 C19         3.7353   -4.7036   -9.2247 C.2       1 <0>        -0.2344
     26 C20         5.0119   -5.2737   -9.4024 C.2       1 <0>        -0.1749
     27 C21         4.8358   -6.5101   -9.9111 C.2       1 <0>         0.0114
     28 N6          3.4949   -6.7254  -10.0545 N.pl3     1 <0>        -0.3825
     29 C22         2.8257   -5.6147   -9.6259 C.2       1 <0>         0.0403
     30 C23         2.9033   -7.8942  -10.5540 C.ar      1 <0>         0.1462
     31 C24         1.5218   -7.9858  -10.6558 C.ar      1 <0>        -0.1343
     32 C25         0.9420   -9.1385  -11.1487 C.ar      1 <0>        -0.0388
     33 C26         1.7360  -10.2005  -11.5406 C.ar      1 <0>        -0.1782
     34 C27         3.1123  -10.1124  -11.4400 C.ar      1 <0>        -0.0371
     35 C28         3.6982   -8.9602  -10.9532 C.ar      1 <0>        -0.1296
     36 C29         1.1002  -11.4567  -12.0779 C.3       1 <0>         0.5080
     37 F1          0.9607  -11.3518  -13.4660 F         1 <0>        -0.1694
     38 F2          1.9093  -12.5564  -11.7724 F         1 <0>        -0.1715
     39 F3         -0.1596  -11.6282  -11.4943 F         1 <0>        -0.1724
     40 H1         -0.9591    1.9053    0.0259 H         1 <0>         0.1306
     41 H2          1.1563    3.1654    0.0076 H         1 <0>         0.1316
     42 H3          3.3051    1.9634   -0.0196 H         1 <0>         0.1254
     43 H4          1.2231   -1.7588   -0.0176 H         1 <0>         0.1165
     44 H5         -0.9258   -0.5567    0.0082 H         1 <0>         0.1279
     45 H6          4.4960   -0.0399   -0.3940 H         1 <0>         0.1130
     46 H7          4.0357   -0.3312    2.0587 H         1 <0>         0.1443
     47 H8          3.3115   -1.9170    1.6995 H         1 <0>         0.1332
     48 H9          4.9647   -3.8976    0.9435 H         1 <0>         0.2185
     49 H10         7.5708   -4.1502    1.1320 H         1 <0>         0.2237
     50 H11         6.6672   -0.1027    1.8119 H         1 <0>         0.2620
     51 H12         3.3922   -2.7378   -0.5694 H         1 <0>         0.3970
     52 H13         3.5135   -3.6539   -2.7131 H         1 <0>         0.4016
     53 H14         4.7362   -1.8666   -4.6740 H         1 <0>         0.1065
     54 H15         1.8812   -2.9064   -4.9861 H         1 <0>         0.0894
     55 H16         2.3674   -1.2023   -4.8113 H         1 <0>         0.1164
     56 H17         1.9713   -1.7753   -7.1918 H         1 <0>         0.1359
     57 H18         3.6785   -1.3607   -6.9093 H         1 <0>         0.1329
     58 H19         4.9019   -4.7470   -7.0536 H         1 <0>         0.1416
     59 H20         5.3285   -3.0338   -6.8314 H         1 <0>         0.1310
     60 H21         5.3696   -4.2466   -4.6697 H         1 <0>         0.1153
     61 H22         3.6683   -4.7186   -4.9018 H         1 <0>         0.0925
     62 H23         2.5144   -2.9565   -9.1173 H         1 <0>         0.1348
     63 H24         4.2590   -2.6555   -8.9325 H         1 <0>         0.1365
     64 H25         5.9580   -4.8058   -9.1736 H         1 <0>         0.1535
     65 H26         5.6198   -7.2093  -10.1620 H         1 <0>         0.1788
     66 H27         1.7533   -5.4872   -9.6126 H         1 <0>         0.1764
     67 H28         0.9011   -7.1568  -10.3495 H         1 <0>         0.1424
     68 H29        -0.1327   -9.2104  -11.2277 H         1 <0>         0.1526
     69 H30         3.7299  -10.9438  -11.7461 H         1 <0>         0.1537
     70 H31         4.7734   -8.8900  -10.8793 H         1 <0>         0.1463
     71 H32         2.5941   -4.0857   -6.9859 H         1 <0>         0.4203
     72 H33         8.4627   -1.8316    1.6555 H         1 <0>         0.4675
@<TRIPOS>BOND
     1    1    6 ar
     2    1    2 ar
     3    1   40 1
     4    2    3 ar
     5    2   41 1
     6    3    4 ar
     7    3   42 1
     8    4    5 ar
     9    4    7 1
    10    5    6 ar
    11    5   43 1
    12    6   44 1
    13    7    8 1
    14    7   14 1
    15    7   45 1
    16    8    9 1
    17    8   46 1
    18    8   47 1
    19    9   13 1
    20    9   10 1
    21   10   11 2
    22   10   48 1
    23   11   12 1
    24   11   49 1
    25   12   13 2
    26   12   72 1
    27   13   50 1
    28   14   15 am
    29   14   51 1
    30   15   16 2
    31   15   17 am
    32   17   18 1
    33   17   52 1
    34   18   23 1
    35   18   19 1
    36   18   53 1
    37   19   20 1
    38   19   54 1
    39   19   55 1
    40   20   21 1
    41   20   56 1
    42   20   57 1
    43   21   22 1
    44   21   24 1
    45   21   71 1
    46   22   23 1
    47   22   58 1
    48   22   59 1
    49   23   60 1
    50   23   61 1
    51   24   25 1
    52   24   62 1
    53   24   63 1
    54   25   29 2
    55   25   26 1
    56   26   27 2
    57   26   64 1
    58   27   28 1
    59   27   65 1
    60   28   29 1
    61   28   30 1
    62   29   66 1
    63   30   35 ar
    64   30   31 ar
    65   31   32 ar
    66   31   67 1
    67   32   33 ar
    68   32   68 1
    69   33   34 ar
    70   33   36 1
    71   34   35 ar
    72   34   69 1
    73   35   70 1
    74   36   37 1
    75   36   38 1
    76   36   39 1
@<TRIPOS>MOLECULE
CHEMBL557263
   71    75     0     0     0
SMALL
USER_CHARGES

@<TRIPOS>ATOM
      1 C1         -0.0167    1.3781    0.0096 C.ar      1 <0>        -0.1077
      2 C2          1.1709    2.0855    0.0021 C.ar      1 <0>        -0.1116
      3 C3          2.3773    1.4107   -0.0130 C.ar      1 <0>        -0.1007
      4 C4          2.3960    0.0285   -0.0201 C.ar      1 <0>        -0.1061
      5 C5          1.2084   -0.6789   -0.0117 C.ar      1 <0>        -0.1122
      6 C6          0.0021   -0.0041    0.0020 C.ar      1 <0>        -0.1140
      7 C7          3.7112   -0.7071   -0.0376 C.3       1 <0>         0.1986
      8 C8          4.0489   -1.1818    1.3772 C.3       1 <0>         0.0946
      9 N1          5.3810   -1.7914    1.3828 N.pl3     1 <0>        -0.4450
     10 C9          5.6717   -3.1100    1.1582 C.2       1 <0>        -0.0481
     11 C10         7.0089   -3.2362    1.2555 C.2       1 <0>        -0.0233
     12 N2          7.5207   -2.0277    1.5321 N.2       1 <0>        -0.4904
     13 C11         6.5519   -1.1564    1.6048 C.2       1 <0>         0.1987
     14 N3          3.6115   -1.8645   -0.9302 N.am      1 <0>        -0.7392
     15 C12         4.7211   -2.3705   -1.5040 C.2       1 <0>         0.7051
     16 O1          5.8048   -1.8664   -1.2808 O.2       1 <0>        -0.5570
     17 N4          4.6294   -3.4353   -2.3252 N.am      1 <0>        -0.7448
     18 C13         5.8355   -3.9853   -2.9489 C.3       1 <0>         0.1592
     19 C14         6.1425   -3.2156   -4.2367 C.3       1 <0>        -0.1593
     20 C15         7.3559   -3.8455   -4.9240 C.3       1 <0>        -0.0029
     21 N5          7.0664   -5.2477   -5.2474 N.4       1 <0>        -0.3827
     22 C16         6.8416   -6.0077   -4.0119 C.3       1 <0>        -0.0024
     23 C17         5.6084   -5.4609   -3.2896 C.3       1 <0>        -0.1535
     24 C18         8.2037   -5.8255   -5.9759 C.3       1 <0>         0.0788
     25 C19         7.8597   -7.2253   -6.4156 C.2       1 <0>        -0.2299
     26 C20         8.0806   -8.4079   -5.6813 C.2       1 <0>        -0.1723
     27 C21         7.6320   -9.4375   -6.4276 C.2       1 <0>         0.0093
     28 N6          7.1410   -8.9338   -7.5982 N.pl3     1 <0>        -0.3850
     29 C22         7.2788   -7.5751   -7.5812 C.2       1 <0>         0.0380
     30 C23         6.5835   -9.6859   -8.6418 C.ar      1 <0>         0.1510
     31 C24         6.1239   -9.0515   -9.7879 C.ar      1 <0>        -0.1354
     32 C25         5.5755   -9.7952  -10.8146 C.ar      1 <0>        -0.0388
     33 C26         5.4842  -11.1703  -10.7017 C.ar      1 <0>        -0.1816
     34 C27         5.9407  -11.8050   -9.5611 C.ar      1 <0>        -0.0372
     35 C28         6.4952  -11.0672   -8.5336 C.ar      1 <0>        -0.1309
     36 C29         4.8854  -11.9788  -11.8236 C.3       1 <0>         0.5085
     37 F1          5.8936  -12.3533  -12.7183 F         1 <0>        -0.1706
     38 F2          4.2775  -13.1248  -11.2997 F         1 <0>        -0.1721
     39 F3          3.9291  -11.2090  -12.4944 F         1 <0>        -0.1729
     40 H1         -0.9591    1.9053    0.0259 H         1 <0>         0.1280
     41 H2          1.1563    3.1654    0.0076 H         1 <0>         0.1296
     42 H3          3.3051    1.9634   -0.0196 H         1 <0>         0.1272
     43 H4          1.2231   -1.7588   -0.0176 H         1 <0>         0.1186
     44 H5         -0.9258   -0.5567    0.0082 H         1 <0>         0.1272
     45 H6          4.4960   -0.0399   -0.3940 H         1 <0>         0.1058
     46 H7          4.0357   -0.3312    2.0587 H         1 <0>         0.1069
     47 H8          3.3115   -1.9170    1.6995 H         1 <0>         0.0943
     48 H9          4.9646   -3.8978    0.9443 H         1 <0>         0.1550
     49 H10         7.5708   -4.1503    1.1325 H         1 <0>         0.1570
     50 H11         6.6672   -0.1025    1.8110 H         1 <0>         0.1970
     51 H12         2.7469   -2.2666   -1.1082 H         1 <0>         0.3973
     52 H13         3.7648   -3.8374   -2.5032 H         1 <0>         0.3982
     53 H14         6.6754   -3.8954   -2.2601 H         1 <0>         0.1083
     54 H15         5.2814   -3.2631   -4.9033 H         1 <0>         0.0861
     55 H16         6.3601   -2.1751   -3.9958 H         1 <0>         0.1161
     56 H17         7.5774   -3.2998   -5.8412 H         1 <0>         0.1326
     57 H18         8.2165   -3.7973   -4.2567 H         1 <0>         0.1330
     58 H19         6.6833   -7.0582   -4.2558 H         1 <0>         0.1385
     59 H20         7.7131   -5.9133   -3.3641 H         1 <0>         0.1316
     60 H21         5.4442   -6.0253   -2.3717 H         1 <0>         0.1168
     61 H22         4.7361   -5.5551   -3.9365 H         1 <0>         0.0896
     62 H23         8.4236   -5.2136   -6.8506 H         1 <0>         0.1331
     63 H24         9.0765   -5.8538   -5.3235 H         1 <0>         0.1365
     64 H25         8.5280   -8.4768   -4.7008 H         1 <0>         0.1546
     65 H26         7.6569  -10.4804   -6.1481 H         1 <0>         0.1784
     66 H27         6.9767   -6.8981   -8.3665 H         1 <0>         0.1760
     67 H28         6.1947   -7.9775   -9.8765 H         1 <0>         0.1427
     68 H29         5.2175   -9.3022  -11.7063 H         1 <0>         0.1516
     69 H30         5.8674  -12.8791   -9.4754 H         1 <0>         0.1527
     70 H31         6.8561  -11.5639   -7.6450 H         1 <0>         0.1465
     71 H32         6.2406   -5.2949   -5.8251 H         1 <0>         0.4190
@<TRIPOS>BOND
     1    1    6 ar
     2    1    2 ar
     3    1   40 1
     4    2    3 ar
     5    2   41 1
     6    3    4 ar
     7    3   42 1
     8    4    5 ar
     9    4    7 1
    10    5    6 ar
    11    5   43 1
    12    6   44 1
    13    7    8 1
    14    7   14 1
    15    7   45 1
    16    8    9 1
    17    8   46 1
    18    8   47 1
    19    9   13 1
    20    9   10 1
    21   10   11 2
    22   10   48 1
    23   11   12 1
    24   11   49 1
    25   12   13 2
    26   13   50 1
    27   14   15 am
    28   14   51 1
    29   15   16 2
    30   15   17 am
    31   17   18 1
    32   17   52 1
    33   18   23 1
    34   18   19 1
    35   18   53 1
    36   19   20 1
    37   19   54 1
    38   19   55 1
    39   20   21 1
    40   20   56 1
    41   20   57 1
    42   21   22 1
    43   21   24 1
    44   21   71 1
    45   22   23 1
    46   22   58 1
    47   22   59 1
    48   23   60 1
    49   23   61 1
    50   24   25 1
    51   24   62 1
    52   24   63 1
    53   25   29 2
    54   25   26 1
    55   26   27 2
    56   26   64 1
    57   27   28 1
    58   27   65 1
    59   28   29 1
    60   28   30 1
    61   29   66 1
    62   30   35 ar
    63   30   31 ar
    64   31   32 ar
    65   31   67 1
    66   32   33 ar
    67   32   68 1
    68   33   34 ar
    69   33   36 1
    70   34   35 ar
    71   34   69 1
    72   35   70 1
    73   36   37 1
    74   36   38 1
    75   36   39 1
@<TRIPOS>MOLECULE
CHEMBL557262
   70    74     0     0     0
SMALL
USER_CHARGES

@<TRIPOS>ATOM
      1 C1         -0.0167    1.3781    0.0096 C.ar      1 <0>        -0.1074
      2 C2          1.1709    2.0855    0.0021 C.ar      1 <0>        -0.1117
      3 C3          2.3773    1.4107   -0.0130 C.ar      1 <0>        -0.0983
      4 C4          2.3960    0.0285   -0.0201 C.ar      1 <0>        -0.1068
      5 C5          1.2084   -0.6789   -0.0117 C.ar      1 <0>        -0.1130
      6 C6          0.0021   -0.0041    0.0020 C.ar      1 <0>        -0.1146
      7 C7          3.7112   -0.7071   -0.0376 C.3       1 <0>         0.2020
      8 C8          4.0191   -1.1676   -1.4638 C.3       1 <0>         0.1203
      9 N1          5.3507   -1.7770   -1.5034 N.pl3     1 <0>        -0.3691
     10 C9          5.6623   -3.0035   -1.9570 C.2       1 <0>         0.2392
     11 N2          6.9529   -3.1703   -1.8226 N.2       1 <0>        -0.5466
     12 C10         7.4968   -2.0772   -1.2891 C.2       1 <0>         0.1902
     13 N3          6.5563   -1.1937   -1.0807 N.2       1 <0>        -0.2659
     14 N4          3.6301   -1.8734    0.8453 N.am      1 <0>        -0.7385
     15 C11         4.7514   -2.3850    1.3907 C.2       1 <0>         0.6991
     16 O1          5.8303   -1.8786    1.1499 O.2       1 <0>        -0.5525
     17 N5          4.6768   -3.4579    2.2029 N.am      1 <0>        -0.7456
     18 C12         5.8957   -4.0140    2.7957 C.3       1 <0>         0.1599
     19 C13         6.5398   -4.9974    1.8143 C.3       1 <0>        -0.1582
     20 C14         7.7673   -5.6337    2.4701 C.3       1 <0>        -0.0017
     21 N6          7.3615   -6.3487    3.6860 N.4       1 <0>        -0.3827
     22 C15         6.8085   -5.4004    4.6604 C.3       1 <0>        -0.0018
     23 C16         5.5441   -4.7551    4.0889 C.3       1 <0>        -0.1539
     24 C17         8.5295   -7.0223    4.2690 C.3       1 <0>         0.0789
     25 C18         8.0930   -7.8559    5.4461 C.2       1 <0>        -0.2299
     26 C19         8.0127   -7.4282    6.7867 C.2       1 <0>        -0.1726
     27 C20         7.5813   -8.4742    7.5202 C.2       1 <0>         0.0092
     28 N7          7.3916   -9.5346    6.6807 N.pl3     1 <0>        -0.3850
     29 C21         7.7020   -9.1460    5.4088 C.2       1 <0>         0.0384
     30 C22         6.9472  -10.8088    7.0607 C.ar      1 <0>         0.1510
     31 C23         6.8007  -11.8073    6.1074 C.ar      1 <0>        -0.1352
     32 C24         6.3631  -13.0618    6.4848 C.ar      1 <0>        -0.0387
     33 C25         6.0711  -13.3237    7.8108 C.ar      1 <0>        -0.1816
     34 C26         6.2156  -12.3311    8.7625 C.ar      1 <0>        -0.0373
     35 C27         6.6583  -11.0763    8.3920 C.ar      1 <0>        -0.1310
     36 C28         5.5939  -14.6936    8.2193 C.3       1 <0>         0.5085
     37 F1          6.6947  -15.4925    8.5466 F         1 <0>        -0.1706
     38 F2          4.7519  -14.5817    9.3309 F         1 <0>        -0.1721
     39 F3          4.8921  -15.2781    7.1596 F         1 <0>        -0.1728
     40 H1         -0.9591    1.9053    0.0259 H         1 <0>         0.1279
     41 H2          1.1563    3.1654    0.0076 H         1 <0>         0.1296
     42 H3          3.3051    1.9634   -0.0196 H         1 <0>         0.1280
     43 H4          1.2231   -1.7588   -0.0176 H         1 <0>         0.1187
     44 H5         -0.9258   -0.5567    0.0082 H         1 <0>         0.1271
     45 H6          4.5034   -0.0434    0.3089 H         1 <0>         0.1144
     46 H7          3.2750   -1.8996   -1.7778 H         1 <0>         0.1024
     47 H8          3.9917   -0.3102   -2.1363 H         1 <0>         0.1024
     48 H9          4.9682   -3.7254   -2.3614 H         1 <0>         0.2063
     49 H10         8.5453   -1.9415   -1.0687 H         1 <0>         0.2069
     50 H11         2.7694   -2.2773    1.0375 H         1 <0>         0.3969
     51 H12         3.8162   -3.8619    2.3950 H         1 <0>         0.3980
     52 H13         6.5945   -3.2071    3.0165 H         1 <0>         0.1040
     53 H14         5.8218   -5.7751    1.5544 H         1 <0>         0.0852
     54 H15         6.8435   -4.4655    0.9127 H         1 <0>         0.1193
     55 H16         8.2284   -6.3342    1.7739 H         1 <0>         0.1339
     56 H17         8.4847   -4.8551    2.7293 H         1 <0>         0.1316
     57 H18         6.5618   -5.9288    5.5813 H         1 <0>         0.1384
     58 H19         7.5464   -4.6268    4.8729 H         1 <0>         0.1304
     59 H20         5.1361   -4.0501    4.8131 H         1 <0>         0.1158
     60 H21         4.8054   -5.5279    3.8762 H         1 <0>         0.0901
     61 H22         8.9899   -7.6655    3.5191 H         1 <0>         0.1337
     62 H23         9.2515   -6.2759    4.6002 H         1 <0>         0.1360
     63 H24         8.2533   -6.4431    7.1584 H         1 <0>         0.1541
     64 H25         7.4148   -8.4736    8.5873 H         1 <0>         0.1783
     65 H26         7.6462   -9.7655    4.5259 H         1 <0>         0.1764
     66 H27         7.0283  -11.6032    5.0715 H         1 <0>         0.1429
     67 H28         6.2486  -13.8389    5.7435 H         1 <0>         0.1517
     68 H29         5.9861  -12.5384    9.7973 H         1 <0>         0.1526
     69 H30         6.7756  -10.3028    9.1365 H         1 <0>         0.1463
     70 H31         6.6609   -7.0364    3.4526 H         1 <0>         0.4191
@<TRIPOS>BOND
     1    1    6 ar
     2    1    2 ar
     3    1   40 1
     4    2    3 ar
     5    2   41 1
     6    3    4 ar
     7    3   42 1
     8    4    5 ar
     9    4    7 1
    10    5    6 ar
    11    5   43 1
    12    6   44 1
    13    7    8 1
    14    7   14 1
    15    7   45 1
    16    8    9 1
    17    8   46 1
    18    8   47 1
    19    9   13 1
    20    9   10 1
    21   10   11 2
    22   10   48 1
    23   11   12 1
    24   12   13 2
    25   12   49 1
    26   14   15 am
    27   14   50 1
    28   15   16 2
    29   15   17 am
    30   17   18 1
    31   17   51 1
    32   18   23 1
    33   18   19 1
    34   18   52 1
    35   19   20 1
    36   19   53 1
    37   19   54 1
    38   20   21 1
    39   20   55 1
    40   20   56 1
    41   21   22 1
    42   21   24 1
    43   21   70 1
    44   22   23 1
    45   22   57 1
    46   22   58 1
    47   23   59 1
    48   23   60 1
    49   24   25 1
    50   24   61 1
    51   24   62 1
    52   25   29 2
    53   25   26 1
    54   26   27 2
    55   26   63 1
    56   27   28 1
    57   27   64 1
    58   28   29 1
    59   28   30 1
    60   29   65 1
    61   30   35 ar
    62   30   31 ar
    63   31   32 ar
    64   31   66 1
    65   32   33 ar
    66   32   67 1
    67   33   34 ar
    68   33   36 1
    69   34   35 ar
    70   34   68 1
    71   35   69 1
    72   36   37 1
    73   36   38 1
    74   36   39 1
@<TRIPOS>MOLECULE
CHEMBL557262
   70    74     0     0     0
SMALL
USER_CHARGES

@<TRIPOS>ATOM
      1 C1         -0.0095    1.6480    0.1242 C.ar      1 <0>        -0.1078
      2 C2          1.2227    2.2722    0.0685 C.ar      1 <0>        -0.1112
      3 C3          2.3792    1.5163    0.0269 C.ar      1 <0>        -0.0928
      4 C4          2.3037    0.1361    0.0415 C.ar      1 <0>        -0.1071
      5 C5          1.0716   -0.4882    0.0982 C.ar      1 <0>        -0.1171
      6 C6         -0.0850    0.2678    0.1383 C.ar      1 <0>        -0.1147
      7 C7          3.5645   -0.6881   -0.0048 C.3       1 <0>         0.1989
      8 C8          3.9143   -1.1649    1.4063 C.3       1 <0>         0.1266
      9 N1          4.2490   -0.0100    2.2431 N.pl3     1 <0>        -0.3768
     10 C9          3.6778    0.3312    3.4112 C.2       1 <0>         0.2602
     11 N2          4.2565    1.4224    3.8427 N.2       1 <0>        -0.5398
     12 C10         5.1976    1.8059    2.9810 C.2       1 <0>         0.2029
     13 N3          5.2345    0.9574    1.9874 N.2       1 <0>        -0.3143
     14 N4          3.3579   -1.8483   -0.8751 N.am      1 <0>        -0.7333
     15 C11         4.4100   -2.4290   -1.4851 C.2       1 <0>         0.7069
     16 O1          5.5186   -1.9406   -1.3811 O.2       1 <0>        -0.5732
     17 N5          4.2334   -3.5512   -2.2104 N.am      1 <0>        -0.7431
     18 C12         5.3771   -4.1825   -2.8735 C.3       1 <0>         0.1560
     19 C13         5.6058   -3.5241   -4.2371 C.3       1 <0>        -0.1614
     20 C14         6.7502   -4.2401   -4.9575 C.3       1 <0>        -0.0031
     21 N6          6.4053   -5.6542   -5.1469 N.4       1 <0>        -0.3832
     22 C15         6.2549   -6.3093   -3.8420 C.3       1 <0>        -0.0027
     23 C16         5.0914   -5.6729   -3.0787 C.3       1 <0>        -0.1541
     24 C17         7.4721   -6.3194   -5.9070 C.3       1 <0>         0.0790
     25 C18         7.0643   -7.7385   -6.2083 C.2       1 <0>        -0.2307
     26 C19         7.3115   -8.8664   -5.4002 C.2       1 <0>        -0.1728
     27 C20         6.7853   -9.9375   -6.0282 C.2       1 <0>         0.0095
     28 N7          6.2209   -9.5121   -7.1968 N.pl3     1 <0>        -0.3847
     29 C21         6.3909   -8.1608   -7.2977 C.2       1 <0>         0.0385
     30 C22         5.5706  -10.3266   -8.1345 C.ar      1 <0>         0.1504
     31 C23         5.0423   -9.7699   -9.2914 C.ar      1 <0>        -0.1351
     32 C24         4.4026  -10.5749  -10.2137 C.ar      1 <0>        -0.0388
     33 C25         4.2881  -11.9339   -9.9856 C.ar      1 <0>        -0.1812
     34 C26         4.8129  -12.4911   -8.8340 C.ar      1 <0>        -0.0373
     35 C27         5.4587  -11.6921   -7.9108 C.ar      1 <0>        -0.1307
     36 C28         3.5896  -12.8094  -10.9939 C.3       1 <0>         0.5085
     37 F1          4.5201  -13.2810  -11.9260 F         1 <0>        -0.1705
     38 F2          2.9958  -13.8933  -10.3383 F         1 <0>        -0.1720
     39 F3          2.6043  -12.0666  -11.6532 F         1 <0>        -0.1728
     40 H1         -0.9129    2.2387    0.1612 H         1 <0>         0.1273
     41 H2          1.2817    3.3506    0.0570 H         1 <0>         0.1273
     42 H3          3.3418    2.0040   -0.0174 H         1 <0>         0.1229
     43 H4          1.0126   -1.5665    0.1093 H         1 <0>         0.1188
     44 H5         -1.0476   -0.2199    0.1822 H         1 <0>         0.1270
     45 H6          4.3811   -0.0813   -0.3960 H         1 <0>         0.1157
     46 H7          3.0599   -1.6888    1.8350 H         1 <0>         0.1024
     47 H8          4.7687   -1.8401    1.3604 H         1 <0>         0.0945
     48 H9          2.8800   -0.2020    3.9067 H         1 <0>         0.2157
     49 H10         5.8303    2.6746    3.0882 H         1 <0>         0.2178
     50 H11         2.4638   -2.1985   -1.0123 H         1 <0>         0.4013
     51 H12         3.3489   -3.9408   -2.2934 H         1 <0>         0.4017
     52 H13         6.2675   -4.0636   -2.2561 H         1 <0>         0.1071
     53 H14         4.6968   -3.5984   -4.8342 H         1 <0>         0.0885
     54 H15         5.8645   -2.4748   -4.0959 H         1 <0>         0.1179
     55 H16         6.9158   -3.7738   -5.9287 H         1 <0>         0.1339
     56 H17         7.6586   -4.1651   -4.3598 H         1 <0>         0.1330
     57 H18         6.0549   -7.3706   -3.9897 H         1 <0>         0.1393
     58 H19         7.1739   -6.1901   -3.2681 H         1 <0>         0.1314
     59 H20         4.9825   -6.1595   -2.1094 H         1 <0>         0.1176
     60 H21         4.1718   -5.7918   -3.6517 H         1 <0>         0.0917
     61 H22         7.6408   -5.7837   -6.8412 H         1 <0>         0.1336
     62 H23         8.3898   -6.3221   -5.3189 H         1 <0>         0.1364
     63 H24         7.8284   -8.8720   -4.4519 H         1 <0>         0.1544
     64 H25         6.8068  -10.9559   -5.6692 H         1 <0>         0.1785
     65 H26         6.0473   -7.5382   -8.1106 H         1 <0>         0.1763
     66 H27         5.1311   -8.7085   -9.4699 H         1 <0>         0.1428
     67 H28         3.9911  -10.1424  -11.1137 H         1 <0>         0.1517
     68 H29         4.7214  -13.5528   -8.6582 H         1 <0>         0.1528
     69 H30         5.8727  -12.1286   -7.0139 H         1 <0>         0.1464
     70 H31         5.5382   -5.7223   -5.6583 H         1 <0>         0.4196
@<TRIPOS>BOND
     1    1    6 ar
     2    1    2 ar
     3    1   40 1
     4    2    3 ar
     5    2   41 1
     6    3    4 ar
     7    3   42 1
     8    4    5 ar
     9    4    7 1
    10    5    6 ar
    11    5   43 1
    12    6   44 1
    13    7    8 1
    14    7   14 1
    15    7   45 1
    16    8    9 1
    17    8   46 1
    18    8   47 1
    19    9   13 1
    20    9   10 1
    21   10   11 2
    22   10   48 1
    23   11   12 1
    24   12   13 2
    25   12   49 1
    26   14   15 am
    27   14   50 1
    28   15   16 2
    29   15   17 am
    30   17   18 1
    31   17   51 1
    32   18   23 1
    33   18   19 1
    34   18   52 1
    35   19   20 1
    36   19   53 1
    37   19   54 1
    38   20   21 1
    39   20   55 1
    40   20   56 1
    41   21   22 1
    42   21   24 1
    43   21   70 1
    44   22   23 1
    45   22   57 1
    46   22   58 1
    47   23   59 1
    48   23   60 1
    49   24   25 1
    50   24   61 1
    51   24   62 1
    52   25   29 2
    53   25   26 1
    54   26   27 2
    55   26   63 1
    56   27   28 1
    57   27   64 1
    58   28   29 1
    59   28   30 1
    60   29   65 1
    61   30   35 ar
    62   30   31 ar
    63   31   32 ar
    64   31   66 1
    65   32   33 ar
    66   32   67 1
    67   33   34 ar
    68   33   36 1
    69   34   35 ar
    70   34   68 1
    71   35   69 1
    72   36   37 1
    73   36   38 1
    74   36   39 1
@<TRIPOS>MOLECULE
CHEMBL179825
   67    70     0     0     0
SMALL
USER_CHARGES

@<TRIPOS>ATOM
      1 C1         -0.1659    1.4000    0.3229 C.3       1 <0>        -0.1926
      2 C2         -0.2814   -0.1123    0.1212 C.3       1 <0>         0.0128
      3 C3          0.3885   -0.8355    1.2913 C.3       1 <0>         0.1742
      4 C4          0.3298   -2.3238    1.0619 C.ar      1 <0>        -0.2100
      5 C5         -0.8921   -2.9248    0.7649 C.ar      1 <0>        -0.1312
      6 C6         -0.9797   -4.2661    0.5522 C.ar      1 <0>        -0.0759
      7 C7          0.1776   -5.0601    0.6320 C.ar      1 <0>         0.0115
      8 C8          0.1254   -6.4472    0.4179 C.ar      1 <0>        -0.1677
      9 C9          1.2703   -7.1870    0.5032 C.ar      1 <0>         0.1751
     10 C10         2.4952   -6.5815    0.8014 C.ar      1 <0>        -0.1740
     11 C11         2.5788   -5.2411    1.0143 C.ar      1 <0>        -0.0602
     12 C12         1.4203   -4.4486    0.9336 C.ar      1 <0>        -0.0965
     13 C13         1.4717   -3.0599    1.1423 C.ar      1 <0>        -0.0287
     14 O1          1.2185   -8.5289    0.2959 O.3       1 <0>        -0.2962
     15 C14         2.4485   -9.2491    0.3985 C.3       1 <0>         0.1007
     16 C15         2.1970  -10.7122    0.1394 C.ar      1 <0>        -0.1069
     17 C16         1.8775  -11.5549    1.1876 C.ar      1 <0>        -0.0900
     18 C17         1.6468  -12.8970    0.9499 C.ar      1 <0>        -0.1029
     19 C18         1.7351  -13.3963   -0.3361 C.ar      1 <0>        -0.0571
     20 C19         2.0537  -12.5535   -1.3844 C.ar      1 <0>        -0.1031
     21 C20         2.2802  -11.2106   -1.1473 C.ar      1 <0>        -0.0901
     22 C21         1.4846  -14.8596   -0.5951 C.3       1 <0>        -0.0800
     23 C22         0.0209  -15.0756   -0.8817 C.2       1 <0>         0.4605
     24 O2         -0.7406  -14.1376   -0.8762 O.2       1 <0>        -0.4997
     25 O3         -0.4367  -16.3101   -1.1430 O.3       1 <0>        -0.3521
     26 C23        -1.8352  -16.4414   -1.4058 C.3       1 <0>         0.0331
     27 N1         -0.3118   -0.5051    2.5350 N.pl3     1 <0>        -0.4109
     28 C24        -1.6282   -0.7533    2.8165 C.2       1 <0>         0.0172
     29 C25        -1.8543   -0.2912    4.0610 C.2       1 <0>         0.0235
     30 N2         -0.7074    0.2250    4.5267 N.pl3     1 <0>        -0.4674
     31 C26         0.2222    0.0959    3.6200 C.cat     1 <0>         0.2995
     32 N3          0.3825   -0.4911   -1.1332 N.4       1 <0>        -0.3788
     33 C27        -0.3155    0.1338   -2.2647 C.3       1 <0>        -0.0530
     34 C28         1.7783   -0.0339   -1.1060 C.3       1 <0>        -0.0655
     35 H1          0.8862    1.6810    0.3694 H         1 <0>         0.0947
     36 H2         -0.6431    1.9152   -0.5107 H         1 <0>         0.1041
     37 H3         -0.6585    1.6810    1.2538 H         1 <0>         0.0991
     38 H4         -1.3335   -0.3933    0.0748 H         1 <0>         0.1512
     39 H5          1.4292   -0.5201    1.3656 H         1 <0>         0.1480
     40 H6         -1.7828   -2.3171    0.7031 H         1 <0>         0.1232
     41 H7         -1.9335   -4.7183    0.3237 H         1 <0>         0.1441
     42 H8         -0.8148   -6.9262    0.1876 H         1 <0>         0.1475
     43 H9          3.3872   -7.1872    0.8639 H         1 <0>         0.1453
     44 H10         3.5313   -4.7870    1.2445 H         1 <0>         0.1418
     45 H11         2.4121   -2.5797    1.3693 H         1 <0>         0.1369
     46 H12         3.1561   -8.8663   -0.3369 H         1 <0>         0.0786
     47 H13         2.8609   -9.1231    1.3996 H         1 <0>         0.0785
     48 H14         1.8085  -11.1648    2.1923 H         1 <0>         0.1261
     49 H15         1.3979  -13.5555    1.7690 H         1 <0>         0.1296
     50 H16         2.1230  -12.9437   -2.3891 H         1 <0>         0.1295
     51 H17         2.5254  -10.5514   -1.9669 H         1 <0>         0.1260
     52 H18         2.0744  -15.1829   -1.4528 H         1 <0>         0.1213
     53 H19         1.7722  -15.4384    0.2826 H         1 <0>         0.1213
     54 H20        -2.0716  -17.4875   -1.6009 H         1 <0>         0.1065
     55 H21        -2.4014  -16.0962   -0.5408 H         1 <0>         0.0616
     56 H22        -2.0993  -15.8408   -2.2762 H         1 <0>         0.0616
     57 H23        -2.3473   -1.2282    2.1655 H         1 <0>         0.2217
     58 H24        -2.7945   -0.3296    4.5912 H         1 <0>         0.2298
     59 H25         1.2481    0.4186    3.7198 H         1 <0>         0.2639
     60 H26         0.1195   -0.2192   -3.1998 H         1 <0>         0.1365
     61 H27        -1.3719   -0.1327   -2.2320 H         1 <0>         0.1283
     62 H28        -0.2120    1.2171   -2.2020 H         1 <0>         0.1294
     63 H29         2.2962   -0.4976   -0.2665 H         1 <0>         0.1196
     64 H30         2.2709   -0.3149   -2.0369 H         1 <0>         0.1389
     65 H31         1.8034    1.0501   -0.9946 H         1 <0>         0.1331
     66 H32         0.3592   -1.4945   -1.2364 H         1 <0>         0.4334
     67 H33        -0.5869    0.6275    5.4010 H         1 <0>         0.4717
@<TRIPOS>BOND
     1    1    2 1
     2    1   35 1
     3    1   36 1
     4    1   37 1
     5    2    3 1
     6    2   32 1
     7    2   38 1
     8    3    4 1
     9    3   27 1
    10    3   39 1
    11    4   13 ar
    12    4    5 ar
    13    5    6 ar
    14    5   40 1
    15    6    7 ar
    16    6   41 1
    17    7   12 ar
    18    7    8 ar
    19    8    9 ar
    20    8   42 1
    21    9   10 ar
    22    9   14 1
    23   10   11 ar
    24   10   43 1
    25   11   12 ar
    26   11   44 1
    27   12   13 ar
    28   13   45 1
    29   14   15 1
    30   15   16 1
    31   15   46 1
    32   15   47 1
    33   16   21 ar
    34   16   17 ar
    35   17   18 ar
    36   17   48 1
    37   18   19 ar
    38   18   49 1
    39   19   20 ar
    40   19   22 1
    41   20   21 ar
    42   20   50 1
    43   21   51 1
    44   22   23 1
    45   22   52 1
    46   22   53 1
    47   23   24 2
    48   23   25 1
    49   25   26 1
    50   26   54 1
    51   26   55 1
    52   26   56 1
    53   27   31 1
    54   27   28 1
    55   28   29 2
    56   28   57 1
    57   29   30 1
    58   29   58 1
    59   30   31 2
    60   30   67 1
    61   31   59 1
    62   32   33 1
    63   32   34 1
    64   32   66 1
    65   33   60 1
    66   33   61 1
    67   33   62 1
    68   34   63 1
    69   34   64 1
    70   34   65 1
@<TRIPOS>MOLECULE
CHEMBL179825
   66    69     0     0     0
SMALL
USER_CHARGES

@<TRIPOS>ATOM
      1 C1         -0.1896    0.8997    0.5976 C.3       1 <0>        -0.2218
      2 C2         -0.1002   -0.5235    0.0432 C.3       1 <0>         0.0182
      3 C3          0.6061   -0.4987   -1.3138 C.3       1 <0>         0.1722
      4 C4          2.0378   -0.0670   -1.1272 C.ar      1 <0>        -0.1383
      5 C5          2.3156    1.2478   -0.7575 C.ar      1 <0>        -0.1209
      6 C6          3.5973    1.6698   -0.5807 C.ar      1 <0>        -0.0916
      7 C7          4.6590    0.7687   -0.7725 C.ar      1 <0>         0.0032
      8 C8          5.9942    1.1687   -0.5985 C.ar      1 <0>        -0.1605
      9 C9          7.0001    0.2657   -0.7931 C.ar      1 <0>         0.1544
     10 C10         6.7187   -1.0530   -1.1642 C.ar      1 <0>        -0.1816
     11 C11         5.4369   -1.4710   -1.3409 C.ar      1 <0>        -0.0620
     12 C12         4.3763   -0.5685   -1.1480 C.ar      1 <0>        -0.0881
     13 C13         3.0398   -0.9684   -1.3166 C.ar      1 <0>        -0.0508
     14 O1          8.2914    0.6538   -0.6245 O.3       1 <0>        -0.3020
     15 C14         9.2998   -0.3350   -0.8423 C.3       1 <0>         0.1009
     16 C15        10.6587    0.2737   -0.6106 C.ar      1 <0>        -0.0996
     17 C16        11.3365    0.8702   -1.6574 C.ar      1 <0>        -0.0908
     18 C17        12.5830    1.4286   -1.4450 C.ar      1 <0>        -0.1035
     19 C18        13.1516    1.3910   -0.1855 C.ar      1 <0>        -0.0635
     20 C19        12.4735    0.7954    0.8615 C.ar      1 <0>        -0.1039
     21 C20        11.2251    0.2408    0.6500 C.ar      1 <0>        -0.0911
     22 C21        14.5110    1.9990    0.0459 C.3       1 <0>        -0.0771
     23 C22        14.3543    3.4463    0.4355 C.2       1 <0>         0.4589
     24 O2         13.2519    3.9340    0.5169 O.2       1 <0>        -0.4964
     25 O3         15.4395    4.1935    0.6921 O.3       1 <0>        -0.3540
     26 C23        15.2168    5.5574    1.0557 C.3       1 <0>         0.0331
     27 N1         -0.0766    0.4450   -2.2025 N.pl3     1 <0>        -0.4765
     28 C24        -0.7526    0.1347   -3.3516 C.2       1 <0>        -0.0726
     29 C25        -1.2226    1.2933   -3.8520 C.2       1 <0>        -0.0034
     30 N2         -0.8440    2.2839   -3.0308 N.2       1 <0>        -0.4732
     31 C26        -0.1615    1.7826   -2.0379 C.2       1 <0>         0.1735
     32 N3         -1.4534   -1.0717   -0.1190 N.4       1 <0>        -0.3878
     33 C27        -1.3676   -2.4381   -0.6514 C.3       1 <0>        -0.0560
     34 C28        -2.1315   -1.0955    1.1839 C.3       1 <0>        -0.0520
     35 H1          0.8132    1.2709    0.8092 H         1 <0>         0.1215
     36 H2         -0.6689    1.5465   -0.1372 H         1 <0>         0.0975
     37 H3         -0.7768    0.8957    1.5159 H         1 <0>         0.0945
     38 H4          0.4644   -1.1482    0.7353 H         1 <0>         0.1589
     39 H5          0.5816   -1.4954   -1.7544 H         1 <0>         0.1280
     40 H6          1.5017    1.9421   -0.6095 H         1 <0>         0.1308
     41 H7          3.7976    2.6919   -0.2949 H         1 <0>         0.1386
     42 H8          6.2240    2.1845   -0.3128 H         1 <0>         0.1419
     43 H9          7.5310   -1.7491   -1.3128 H         1 <0>         0.1381
     44 H10         5.2344   -2.4922   -1.6282 H         1 <0>         0.1366
     45 H11         2.8090   -1.9850   -1.5990 H         1 <0>         0.1312
     46 H12         9.1506   -1.1645   -0.1509 H         1 <0>         0.0753
     47 H13         9.2352   -0.7003   -1.8672 H         1 <0>         0.0755
     48 H14        10.8922    0.8995   -2.6414 H         1 <0>         0.1266
     49 H15        13.1128    1.8940   -2.2630 H         1 <0>         0.1278
     50 H16        12.9179    0.7658    1.8454 H         1 <0>         0.1276
     51 H17        10.6937   -0.2213    1.4688 H         1 <0>         0.1263
     52 H18        15.0185    1.4602    0.8461 H         1 <0>         0.1196
     53 H19        15.1001    1.9306   -0.8687 H         1 <0>         0.1196
     54 H20        14.6939    6.0683    0.2471 H         1 <0>         0.0614
     55 H21        14.6124    5.5978    1.9619 H         1 <0>         0.0613
     56 H22        16.1742    6.0465    1.2354 H         1 <0>         0.1049
     57 H23        -0.8834   -0.8498   -3.7757 H         1 <0>         0.1816
     58 H24        -1.8028    1.4052   -4.7560 H         1 <0>         0.1786
     59 H25         0.2668    2.3448   -1.2212 H         1 <0>         0.2156
     60 H26        -0.8030   -3.0629    0.0407 H         1 <0>         0.1281
     61 H27        -2.3716   -2.8449   -0.7718 H         1 <0>         0.1311
     62 H28        -0.8644   -2.4205   -1.6181 H         1 <0>         0.1190
     63 H29        -2.1952   -0.0816    1.5789 H         1 <0>         0.1275
     64 H30        -3.1356   -1.5022    1.0635 H         1 <0>         0.1281
     65 H31        -1.5669   -1.7202    1.8760 H         1 <0>         0.1258
     66 H32        -1.9760   -0.4933   -0.7597 H         1 <0>         0.4256
@<TRIPOS>BOND
     1    1    2 1
     2    1   35 1
     3    1   36 1
     4    1   37 1
     5    2    3 1
     6    2   32 1
     7    2   38 1
     8    3    4 1
     9    3   27 1
    10    3   39 1
    11    4   13 ar
    12    4    5 ar
    13    5    6 ar
    14    5   40 1
    15    6    7 ar
    16    6   41 1
    17    7   12 ar
    18    7    8 ar
    19    8    9 ar
    20    8   42 1
    21    9   10 ar
    22    9   14 1
    23   10   11 ar
    24   10   43 1
    25   11   12 ar
    26   11   44 1
    27   12   13 ar
    28   13   45 1
    29   14   15 1
    30   15   16 1
    31   15   46 1
    32   15   47 1
    33   16   21 ar
    34   16   17 ar
    35   17   18 ar
    36   17   48 1
    37   18   19 ar
    38   18   49 1
    39   19   20 ar
    40   19   22 1
    41   20   21 ar
    42   20   50 1
    43   21   51 1
    44   22   23 1
    45   22   52 1
    46   22   53 1
    47   23   24 2
    48   23   25 1
    49   25   26 1
    50   26   54 1
    51   26   55 1
    52   26   56 1
    53   27   31 1
    54   27   28 1
    55   28   29 2
    56   28   57 1
    57   29   30 1
    58   29   58 1
    59   30   31 2
    60   31   59 1
    61   32   33 1
    62   32   34 1
    63   32   66 1
    64   33   60 1
    65   33   61 1
    66   33   62 1
    67   34   63 1
    68   34   64 1
    69   34   65 1
@<TRIPOS>MOLECULE
CHEMBL179825
   67    70     0     0     0
SMALL
USER_CHARGES

@<TRIPOS>ATOM
      1 C1          0.0025    1.5134    0.3347 C.3       1 <0>        -0.1837
      2 C2         -0.2659    0.0166    0.1667 C.3       1 <0>         0.0148
      3 C3          0.4037   -0.7528    1.3071 C.3       1 <0>         0.1703
      4 C4         -0.2276   -0.3587    2.6175 C.ar      1 <0>        -0.1723
      5 C5         -1.5897   -0.5768    2.8163 C.ar      1 <0>        -0.1192
      6 C6         -2.1907   -0.2326    3.9878 C.ar      1 <0>        -0.0814
      7 C7         -1.4291    0.3514    5.0149 C.ar      1 <0>         0.0111
      8 C8         -2.0151    0.7190    6.2373 C.ar      1 <0>        -0.1673
      9 C9         -1.2440    1.2837    7.2128 C.ar      1 <0>         0.1711
     10 C10         0.1226    1.5016    7.0109 C.ar      1 <0>        -0.1761
     11 C11         0.7196    1.1573    5.8387 C.ar      1 <0>        -0.0601
     12 C12        -0.0437    0.5728    4.8128 C.ar      1 <0>        -0.0948
     13 C13         0.5422    0.1997    3.5912 C.ar      1 <0>        -0.0286
     14 O1         -1.8122    1.6389    8.3950 O.3       1 <0>        -0.2976
     15 C14        -0.9549    2.2250    9.3766 C.3       1 <0>         0.1007
     16 C15        -1.7545    2.5509   10.6117 C.ar      1 <0>        -0.1055
     17 C16        -2.3642    3.7855   10.7345 C.ar      1 <0>        -0.0901
     18 C17        -3.0977    4.0844   11.8674 C.ar      1 <0>        -0.1030
     19 C18        -3.2220    3.1487   12.8773 C.ar      1 <0>        -0.0584
     20 C19        -2.6131    1.9137   12.7540 C.ar      1 <0>        -0.1032
     21 C20        -1.8831    1.6132   11.6192 C.ar      1 <0>        -0.0904
     22 C21        -4.0208    3.4749   14.1128 C.3       1 <0>        -0.0795
     23 C22        -5.4571    3.0693   13.9039 C.2       1 <0>         0.4603
     24 O2         -5.7971    2.5668   12.8591 O.2       1 <0>        -0.4993
     25 O3         -6.3586    3.2663   14.8787 O.3       1 <0>        -0.3524
     26 C23        -7.7018    2.8579   14.6123 C.3       1 <0>         0.0331
     27 N1          0.2290   -2.1917    1.0941 N.pl3     1 <0>        -0.4342
     28 C24        -0.9507   -2.8379    0.8403 C.2       1 <0>        -0.0020
     29 C25        -0.6583   -4.1460    0.7106 C.2       1 <0>         0.0327
     30 N2          0.6638   -4.2945    0.8805 N.pl3     1 <0>        -0.4661
     31 C26         1.2026   -3.1275    1.1056 C.cat     1 <0>         0.2947
     32 N3          0.2818   -0.4379   -1.1184 N.4       1 <0>        -0.3914
     33 C27        -0.4292    0.2293   -2.2172 C.3       1 <0>        -0.0548
     34 C28         1.7110   -0.1052   -1.1867 C.3       1 <0>        -0.0670
     35 H1          1.0772    1.6945    0.3134 H         1 <0>         0.0932
     36 H2         -0.4745    2.0616   -0.4778 H         1 <0>         0.1026
     37 H3         -0.4039    1.8506    1.2883 H         1 <0>         0.1200
     38 H4         -1.3405   -0.1645    0.1880 H         1 <0>         0.1553
     39 H5          1.4673   -0.5154    1.3302 H         1 <0>         0.1516
     40 H6         -2.1771   -1.0254    2.0288 H         1 <0>         0.1171
     41 H7         -3.2473   -0.4069    4.1275 H         1 <0>         0.1411
     42 H8         -3.0696    0.5563    6.4047 H         1 <0>         0.1458
     43 H9          0.7120    1.9501    7.7969 H         1 <0>         0.1438
     44 H10         1.7758    1.3321    5.6963 H         1 <0>         0.1408
     45 H11         1.5973    0.3589    3.4243 H         1 <0>         0.1355
     46 H12        -0.1617    1.5224    9.6323 H         1 <0>         0.0776
     47 H13        -0.5158    3.1388    8.9764 H         1 <0>         0.0782
     48 H14        -2.2670    4.5166    9.9456 H         1 <0>         0.1264
     49 H15        -3.5734    5.0492   11.9637 H         1 <0>         0.1293
     50 H16        -2.7099    1.1828   13.5431 H         1 <0>         0.1291
     51 H17        -1.4106    0.6471   11.5213 H         1 <0>         0.1259
     52 H18        -3.6103    2.9327   14.9646 H         1 <0>         0.1210
     53 H19        -3.9703    4.5466   14.3056 H         1 <0>         0.1211
     54 H20        -8.3258    3.0729   15.4797 H         1 <0>         0.1062
     55 H21        -8.0821    3.4015   13.7474 H         1 <0>         0.0615
     56 H22        -7.7222    1.7877   14.4064 H         1 <0>         0.0614
     57 H23        -1.9281   -2.3856    0.7599 H         1 <0>         0.2261
     58 H24        -1.3647   -4.9369    0.5056 H         1 <0>         0.2327
     59 H25         2.2527   -2.9412    1.2756 H         1 <0>         0.2663
     60 H26        -0.0346   -0.1208   -3.1710 H         1 <0>         0.1346
     61 H27        -1.4923   -0.0035   -2.1563 H         1 <0>         0.1294
     62 H28        -0.2884    1.3074   -2.1394 H         1 <0>         0.1344
     63 H29         2.2386   -0.6003   -0.3714 H         1 <0>         0.1149
     64 H30         2.1174   -0.4424   -2.1402 H         1 <0>         0.1379
     65 H31         1.8375    0.9738   -1.0990 H         1 <0>         0.1405
     66 H32         0.1647   -1.4368   -1.1996 H         1 <0>         0.4147
     67 H33         1.1442   -5.1362    0.8390 H         1 <0>         0.4736
@<TRIPOS>BOND
     1    1    2 1
     2    1   35 1
     3    1   36 1
     4    1   37 1
     5    2    3 1
     6    2   32 1
     7    2   38 1
     8    3    4 1
     9    3   27 1
    10    3   39 1
    11    4   13 ar
    12    4    5 ar
    13    5    6 ar
    14    5   40 1
    15    6    7 ar
    16    6   41 1
    17    7   12 ar
    18    7    8 ar
    19    8    9 ar
    20    8   42 1
    21    9   10 ar
    22    9   14 1
    23   10   11 ar
    24   10   43 1
    25   11   12 ar
    26   11   44 1
    27   12   13 ar
    28   13   45 1
    29   14   15 1
    30   15   16 1
    31   15   46 1
    32   15   47 1
    33   16   21 ar
    34   16   17 ar
    35   17   18 ar
    36   17   48 1
    37   18   19 ar
    38   18   49 1
    39   19   20 ar
    40   19   22 1
    41   20   21 ar
    42   20   50 1
    43   21   51 1
    44   22   23 1
    45   22   52 1
    46   22   53 1
    47   23   24 2
    48   23   25 1
    49   25   26 1
    50   26   54 1
    51   26   55 1
    52   26   56 1
    53   27   31 1
    54   27   28 1
    55   28   29 2
    56   28   57 1
    57   29   30 1
    58   29   58 1
    59   30   31 2
    60   30   67 1
    61   31   59 1
    62   32   33 1
    63   32   34 1
    64   32   66 1
    65   33   60 1
    66   33   61 1
    67   33   62 1
    68   34   63 1
    69   34   64 1
    70   34   65 1
@<TRIPOS>MOLECULE
CHEMBL179825
   66    69     0     0     0
SMALL
USER_CHARGES

@<TRIPOS>ATOM
      1 C1          0.2473    1.5134   -0.1537 C.3       1 <0>        -0.1801
      2 C2          0.2722    0.0158    0.1584 C.3       1 <0>         0.0154
      3 C3          0.9457   -0.7339   -0.9929 C.3       1 <0>         0.1736
      4 C4          2.3878   -0.3083   -1.0940 C.ar      1 <0>        -0.1396
      5 C5          3.2414   -0.5133   -0.0115 C.ar      1 <0>        -0.1071
      6 C6          4.5490   -0.1407   -0.0701 C.ar      1 <0>        -0.0925
      7 C7          5.0495    0.4597   -1.2385 C.ar      1 <0>         0.0035
      8 C8          6.3933    0.8566   -1.3352 C.ar      1 <0>        -0.1611
      9 C9          6.8447    1.4366   -2.4863 C.ar      1 <0>         0.1545
     10 C10         5.9861    1.6413   -3.5711 C.ar      1 <0>        -0.1820
     11 C11         4.6798    1.2686   -3.5087 C.ar      1 <0>        -0.0616
     12 C12         4.1813    0.6678   -2.3395 C.ar      1 <0>        -0.0885
     13 C13         2.8384    0.2653   -2.2430 C.ar      1 <0>        -0.0494
     14 O1          8.1450    1.8202   -2.5787 O.3       1 <0>        -0.3022
     15 C14         8.5584    2.4211   -3.8075 C.3       1 <0>         0.1009
     16 C15        10.0202    2.7780   -3.7253 C.ar      1 <0>        -0.0994
     17 C16        10.4032    4.0188   -3.2514 C.ar      1 <0>        -0.0911
     18 C17        11.7440    4.3462   -3.1760 C.ar      1 <0>        -0.1038
     19 C18        12.7020    3.4326   -3.5742 C.ar      1 <0>        -0.0636
     20 C19        12.3192    2.1915   -4.0472 C.ar      1 <0>        -0.1035
     21 C20        10.9784    1.8625   -4.1186 C.ar      1 <0>        -0.0909
     22 C21        14.1638    3.7899   -3.4929 C.3       1 <0>        -0.0770
     23 C22        14.7046    3.3894   -2.1445 C.2       1 <0>         0.4589
     24 O2         13.9777    2.8674   -1.3328 O.2       1 <0>        -0.4964
     25 O3         15.9940    3.6126   -1.8453 O.3       1 <0>        -0.3540
     26 C23        16.4387    3.2075   -0.5491 C.3       1 <0>         0.0331
     27 N1          0.8784   -2.1757   -0.7423 N.pl3     1 <0>        -0.4813
     28 C24         0.4223   -3.1306   -1.6105 C.2       1 <0>        -0.0573
     29 C25         0.5364   -4.3158   -0.9812 C.2       1 <0>        -0.0082
     30 N2          1.0481   -4.0907    0.2380 N.2       1 <0>        -0.4681
     31 C26         1.2602   -2.8116    0.3863 C.2       1 <0>         0.1665
     32 N3         -1.1033   -0.4730    0.3228 N.4       1 <0>        -0.3871
     33 C27        -1.7178    0.1766    1.4883 C.3       1 <0>        -0.0514
     34 C28        -1.8827   -0.1567   -0.8815 C.3       1 <0>        -0.0596
     35 H1          1.2679    1.8762   -0.2757 H         1 <0>         0.1132
     36 H2         -0.3112    1.6836   -1.0741 H         1 <0>         0.0876
     37 H3         -0.2325    2.0475    0.6665 H         1 <0>         0.0929
     38 H4          0.8307   -0.1543    1.0788 H         1 <0>         0.1462
     39 H5          0.4324   -0.5030   -1.9263 H         1 <0>         0.1277
     40 H6          2.8594   -0.9744    0.8873 H         1 <0>         0.1192
     41 H7          5.1987   -0.3051    0.7768 H         1 <0>         0.1370
     42 H8          7.0657    0.7043   -0.5039 H         1 <0>         0.1413
     43 H9          6.3657    2.1023   -4.4709 H         1 <0>         0.1380
     44 H10         4.0280    1.4335   -4.3538 H         1 <0>         0.1366
     45 H11         2.1661    0.4141   -3.0751 H         1 <0>         0.1308
     46 H12         8.4013    1.7189   -4.6263 H         1 <0>         0.0754
     47 H13         7.9735    3.3234   -3.9855 H         1 <0>         0.0754
     48 H14         9.6547    4.7326   -2.9404 H         1 <0>         0.1263
     49 H15        12.0432    5.3159   -2.8064 H         1 <0>         0.1276
     50 H16        13.0676    1.4778   -4.3586 H         1 <0>         0.1278
     51 H17        10.6794    0.8914   -4.4847 H         1 <0>         0.1266
     52 H18        14.7107    3.2630   -4.2748 H         1 <0>         0.1196
     53 H19        14.2831    4.8650   -3.6275 H         1 <0>         0.1196
     54 H20        15.8655    3.7354    0.2131 H         1 <0>         0.0613
     55 H21        16.2930    2.1334   -0.4342 H         1 <0>         0.0614
     56 H22        17.4966    3.4447   -0.4373 H         1 <0>         0.1049
     57 H23         0.0435   -2.9653   -2.6083 H         1 <0>         0.1827
     58 H24         0.2636   -5.2787   -1.3871 H         1 <0>         0.1791
     59 H25         1.6707   -2.3395    1.2666 H         1 <0>         0.2050
     60 H26        -1.7493    1.2544    1.3290 H         1 <0>         0.1275
     61 H27        -2.7316   -0.2007    1.6221 H         1 <0>         0.1285
     62 H28        -1.1284   -0.0420    2.3788 H         1 <0>         0.1253
     63 H29        -1.4267   -0.6387   -1.7464 H         1 <0>         0.1186
     64 H30        -2.9033   -0.5194   -0.7595 H         1 <0>         0.1302
     65 H31        -1.8963    0.9227   -1.0324 H         1 <0>         0.1309
     66 H32        -1.0907   -1.4722    0.4625 H         1 <0>         0.4264
@<TRIPOS>BOND
     1    1    2 1
     2    1   35 1
     3    1   36 1
     4    1   37 1
     5    2    3 1
     6    2   32 1
     7    2   38 1
     8    3    4 1
     9    3   27 1
    10    3   39 1
    11    4   13 ar
    12    4    5 ar
    13    5    6 ar
    14    5   40 1
    15    6    7 ar
    16    6   41 1
    17    7   12 ar
    18    7    8 ar
    19    8    9 ar
    20    8   42 1
    21    9   10 ar
    22    9   14 1
    23   10   11 ar
    24   10   43 1
    25   11   12 ar
    26   11   44 1
    27   12   13 ar
    28   13   45 1
    29   14   15 1
    30   15   16 1
    31   15   46 1
    32   15   47 1
    33   16   21 ar
    34   16   17 ar
    35   17   18 ar
    36   17   48 1
    37   18   19 ar
    38   18   49 1
    39   19   20 ar
    40   19   22 1
    41   20   21 ar
    42   20   50 1
    43   21   51 1
    44   22   23 1
    45   22   52 1
    46   22   53 1
    47   23   24 2
    48   23   25 1
    49   25   26 1
    50   26   54 1
    51   26   55 1
    52   26   56 1
    53   27   31 1
    54   27   28 1
    55   28   29 2
    56   28   57 1
    57   29   30 1
    58   29   58 1
    59   30   31 2
    60   31   59 1
    61   32   33 1
    62   32   34 1
    63   32   66 1
    64   33   60 1
    65   33   61 1
    66   33   62 1
    67   34   63 1
    68   34   64 1
    69   34   65 1
@<TRIPOS>MOLECULE
CHEMBL179825
   67    70     0     0     0
SMALL
USER_CHARGES

@<TRIPOS>ATOM
      1 C1          0.1838    1.3947   -0.3052 C.3       1 <0>        -0.1835
      2 C2          0.2037   -0.1234   -0.1165 C.3       1 <0>         0.0147
      3 C3          0.6366   -0.4540    1.3132 C.3       1 <0>         0.1702
      4 C4          2.0530    0.0129    1.5299 C.ar      1 <0>        -0.1723
      5 C5          3.0739   -0.4980    0.7304 C.ar      1 <0>        -0.1197
      6 C6          4.3635   -0.0975    0.9000 C.ar      1 <0>        -0.0812
      7 C7          4.6737    0.8459    1.8950 C.ar      1 <0>         0.0110
      8 C8          5.9929    1.2829    2.0983 C.ar      1 <0>        -0.1673
      9 C9          6.2571    2.2009    3.0743 C.ar      1 <0>         0.1711
     10 C10         5.2308    2.7120    3.8752 C.ar      1 <0>        -0.1761
     11 C11         3.9436    2.3088    3.7037 C.ar      1 <0>        -0.0601
     12 C12         3.6352    1.3657    2.7077 C.ar      1 <0>        -0.0947
     13 C13         2.3151    0.9313    2.4995 C.ar      1 <0>        -0.0284
     14 O1          7.5338    2.6230    3.2700 O.3       1 <0>        -0.2976
     15 C14         7.7478    3.5842    4.3056 C.3       1 <0>         0.1008
     16 C15         9.2128    3.9304    4.3747 C.ar      1 <0>        -0.1055
     17 C16        10.0581    3.1998    5.1887 C.ar      1 <0>        -0.0904
     18 C17        11.4019    3.5174    5.2521 C.ar      1 <0>        -0.1032
     19 C18        11.9007    4.5653    4.5012 C.ar      1 <0>        -0.0584
     20 C19        11.0556    5.2954    3.6865 C.ar      1 <0>        -0.1031
     21 C20         9.7125    4.9751    3.6198 C.ar      1 <0>        -0.0901
     22 C21        13.3655    4.9122    4.5710 C.3       1 <0>        -0.0795
     23 C22        14.1166    4.1340    3.5216 C.2       1 <0>         0.4603
     24 O2         13.5233    3.3756    2.7918 O.2       1 <0>        -0.4993
     25 O3         15.4448    4.2835    3.3976 O.3       1 <0>        -0.3524
     26 C23        16.0921    3.5147    2.3817 C.3       1 <0>         0.0331
     27 N1          0.5622   -1.9019    1.5236 N.pl3     1 <0>        -0.4345
     28 C24         1.1387   -2.8669    0.7424 C.2       1 <0>         0.0000
     29 C25         0.8218   -4.0544    1.2928 C.2       1 <0>         0.0319
     30 N2          0.0723   -3.8210    2.3803 N.pl3     1 <0>        -0.4661
     31 C26        -0.0831   -2.5337    2.5277 C.cat     1 <0>         0.2939
     32 N3         -1.1404   -0.6646   -0.3586 N.4       1 <0>        -0.3915
     33 C27        -2.1087    0.0248    0.5046 C.3       1 <0>        -0.0669
     34 C28        -1.5053   -0.4577   -1.7665 C.3       1 <0>        -0.0539
     35 H1          1.1811    1.7963   -0.1256 H         1 <0>         0.1198
     36 H2         -0.1246    1.6303   -1.3238 H         1 <0>         0.1023
     37 H3         -0.5192    1.8393    0.3993 H         1 <0>         0.0933
     38 H4          0.9067   -0.5680   -0.8210 H         1 <0>         0.1553
     39 H5         -0.0240    0.0500    2.0187 H         1 <0>         0.1515
     40 H6          2.8383   -1.2229   -0.0347 H         1 <0>         0.1172
     41 H7          5.1445   -0.5025    0.2735 H         1 <0>         0.1412
     42 H8          6.7940    0.8950    1.4865 H         1 <0>         0.1458
     43 H9          5.4641    3.4369    4.6411 H         1 <0>         0.1438
     44 H10         3.1612    2.7114    4.3300 H         1 <0>         0.1407
     45 H11         1.5130    1.3214    3.1086 H         1 <0>         0.1355
     46 H12         7.1715    4.4841    4.0908 H         1 <0>         0.0781
     47 H13         7.4276    3.1670    5.2604 H         1 <0>         0.0777
     48 H14         9.6684    2.3810    5.7754 H         1 <0>         0.1259
     49 H15        12.0622    2.9470    5.8886 H         1 <0>         0.1291
     50 H16        11.4452    6.1144    3.1000 H         1 <0>         0.1293
     51 H17         9.0530    5.5431    2.9805 H         1 <0>         0.1263
     52 H18        13.4950    5.9798    4.3937 H         1 <0>         0.1211
     53 H19        13.7524    4.6582    5.5579 H         1 <0>         0.1209
     54 H20        17.1607    3.7293    2.3891 H         1 <0>         0.1062
     55 H21        15.9334    2.4533    2.5726 H         1 <0>         0.0614
     56 H22        15.6760    3.7749    1.4084 H         1 <0>         0.0616
     57 H23         1.7330   -2.7066   -0.1450 H         1 <0>         0.2262
     58 H24         1.1191   -5.0247    0.9232 H         1 <0>         0.2327
     59 H25        -0.6381   -2.0533    3.3199 H         1 <0>         0.2664
     60 H26        -3.1060   -0.3767    0.3249 H         1 <0>         0.1377
     61 H27        -1.8379   -0.1287    1.5492 H         1 <0>         0.1154
     62 H28        -2.1006    1.0914    0.2802 H         1 <0>         0.1407
     63 H29        -0.7306   -0.8776   -2.4081 H         1 <0>         0.1293
     64 H30        -2.4548   -0.9519   -1.9721 H         1 <0>         0.1343
     65 H31        -1.6012    0.6100   -1.9638 H         1 <0>         0.1342
     66 H32        -1.1479   -1.6519   -0.1509 H         1 <0>         0.4143
     67 H33        -0.2933   -4.5015    2.9669 H         1 <0>         0.4735
@<TRIPOS>BOND
     1    1    2 1
     2    1   35 1
     3    1   36 1
     4    1   37 1
     5    2    3 1
     6    2   32 1
     7    2   38 1
     8    3    4 1
     9    3   27 1
    10    3   39 1
    11    4   13 ar
    12    4    5 ar
    13    5    6 ar
    14    5   40 1
    15    6    7 ar
    16    6   41 1
    17    7   12 ar
    18    7    8 ar
    19    8    9 ar
    20    8   42 1
    21    9   10 ar
    22    9   14 1
    23   10   11 ar
    24   10   43 1
    25   11   12 ar
    26   11   44 1
    27   12   13 ar
    28   13   45 1
    29   14   15 1
    30   15   16 1
    31   15   46 1
    32   15   47 1
    33   16   21 ar
    34   16   17 ar
    35   17   18 ar
    36   17   48 1
    37   18   19 ar
    38   18   49 1
    39   19   20 ar
    40   19   22 1
    41   20   21 ar
    42   20   50 1
    43   21   51 1
    44   22   23 1
    45   22   52 1
    46   22   53 1
    47   23   24 2
    48   23   25 1
    49   25   26 1
    50   26   54 1
    51   26   55 1
    52   26   56 1
    53   27   31 1
    54   27   28 1
    55   28   29 2
    56   28   57 1
    57   29   30 1
    58   29   58 1
    59   30   31 2
    60   30   67 1
    61   31   59 1
    62   32   33 1
    63   32   34 1
    64   32   66 1
    65   33   60 1
    66   33   61 1
    67   33   62 1
    68   34   63 1
    69   34   64 1
    70   34   65 1
@<TRIPOS>MOLECULE
CHEMBL179825
   66    69     0     0     0
SMALL
USER_CHARGES

@<TRIPOS>ATOM
      1 C1          0.1029    1.4286    0.3716 C.3       1 <0>        -0.1799
      2 C2         -0.0226   -0.0930    0.2722 C.3       1 <0>         0.0150
      3 C3         -1.4657   -0.4641   -0.0753 C.3       1 <0>         0.1737
      4 C4         -2.3771   -0.0433    1.0487 C.ar      1 <0>        -0.1391
      5 C5         -2.1807   -0.5683    2.3247 C.ar      1 <0>        -0.1074
      6 C6         -2.9858   -0.2092    3.3615 C.ar      1 <0>        -0.0922
      7 C7         -4.0317    0.7049    3.1457 C.ar      1 <0>         0.0033
      8 C8         -4.8820    1.0990    4.1919 C.ar      1 <0>        -0.1610
      9 C9         -5.8876    1.9896    3.9453 C.ar      1 <0>         0.1544
     10 C10        -6.0828    2.5148    2.6640 C.ar      1 <0>        -0.1819
     11 C11        -5.2769    2.1530    1.6301 C.ar      1 <0>        -0.0617
     12 C12        -4.2311    1.2390    1.8480 C.ar      1 <0>        -0.0883
     13 C13        -3.3762    0.8478    0.8036 C.ar      1 <0>        -0.0495
     14 O1         -6.7097    2.3700    4.9583 O.3       1 <0>        -0.3022
     15 C14        -7.7431    3.3040    4.6392 C.3       1 <0>         0.1009
     16 C15        -8.5475    3.6056    5.8773 C.ar      1 <0>        -0.0994
     17 C16        -9.6517    2.8346    6.1890 C.ar      1 <0>        -0.0908
     18 C17       -10.3896    3.1113    7.3247 C.ar      1 <0>        -0.1035
     19 C18       -10.0229    4.1586    8.1490 C.ar      1 <0>        -0.0636
     20 C19        -8.9182    4.9291    7.8378 C.ar      1 <0>        -0.1039
     21 C20        -8.1778    4.6497    6.7044 C.ar      1 <0>        -0.0911
     22 C21       -10.8279    4.4609    9.3866 C.3       1 <0>        -0.0770
     23 C22       -10.2716    3.6817   10.5504 C.2       1 <0>         0.4589
     24 O2         -9.3192    2.9554   10.3912 O.2       1 <0>        -0.4965
     25 O3        -10.8342    3.7944   11.7639 O.3       1 <0>        -0.3540
     26 C23       -10.2553    3.0270   12.8212 C.3       1 <0>         0.0331
     27 N1         -1.5644   -1.9130   -0.2677 N.pl3     1 <0>        -0.4812
     28 C24        -2.0919   -2.5537   -1.3563 C.2       1 <0>        -0.0588
     29 C25        -1.9831   -3.8752   -1.1212 C.2       1 <0>        -0.0079
     30 N2         -1.4049   -4.0371    0.0782 N.2       1 <0>        -0.4684
     31 C26        -1.1467   -2.8660    0.5930 C.2       1 <0>         0.1677
     32 N3          0.8772   -0.5910   -0.7767 N.4       1 <0>        -0.3872
     33 C27         0.5927    0.1066   -2.0378 C.3       1 <0>        -0.0595
     34 C28         2.2711   -0.3439   -0.3841 C.3       1 <0>        -0.0504
     35 H1          1.1309    1.6930    0.6192 H         1 <0>         0.0926
     36 H2         -0.1681    1.8787   -0.5834 H         1 <0>         0.0877
     37 H3         -0.5648    1.7982    1.1499 H         1 <0>         0.1130
     38 H4          0.2484   -0.5431    1.2272 H         1 <0>         0.1461
     39 H5         -1.7610    0.0453   -0.9926 H         1 <0>         0.1276
     40 H6         -1.3778   -1.2707    2.4932 H         1 <0>         0.1192
     41 H7         -2.8222   -0.6246    4.3449 H         1 <0>         0.1371
     42 H8         -4.7417    0.6997    5.1855 H         1 <0>         0.1413
     43 H9         -6.8850    3.2174    2.4930 H         1 <0>         0.1380
     44 H10        -5.4397    2.5660    0.6456 H         1 <0>         0.1366
     45 H11        -3.5138    1.2493   -0.1896 H         1 <0>         0.1308
     46 H12        -7.2972    4.2245    4.2624 H         1 <0>         0.0754
     47 H13        -8.3954    2.8778    3.8770 H         1 <0>         0.0754
     48 H14        -9.9381    2.0163    5.5449 H         1 <0>         0.1266
     49 H15       -11.2527    2.5094    7.5678 H         1 <0>         0.1278
     50 H16        -8.6319    5.7475    8.4817 H         1 <0>         0.1276
     51 H17        -7.3125    5.2493    6.4633 H         1 <0>         0.1263
     52 H18       -10.7732    5.5275    9.6042 H         1 <0>         0.1196
     53 H19       -11.8673    4.1764    9.2225 H         1 <0>         0.1196
     54 H20       -10.3073    1.9672   12.5716 H         1 <0>         0.0614
     55 H21        -9.2133    3.3184   12.9533 H         1 <0>         0.0613
     56 H22       -10.8036    3.2099   13.7453 H         1 <0>         0.1049
     57 H23        -2.5145   -2.0887   -2.2347 H         1 <0>         0.1827
     58 H24        -2.3050   -4.6661   -1.7825 H         1 <0>         0.1791
     59 H25        -0.6789   -2.6885    1.5501 H         1 <0>         0.2050
     60 H26         0.7481    1.1771   -1.9039 H         1 <0>         0.1311
     61 H27         1.2604   -0.2629   -2.8161 H         1 <0>         0.1302
     62 H28        -0.4415   -0.0768   -2.3291 H         1 <0>         0.1186
     63 H29         2.4520   -0.7715    0.6020 H         1 <0>         0.1251
     64 H30         2.9403   -0.8069   -1.1093 H         1 <0>         0.1284
     65 H31         2.4551    0.7300   -0.3538 H         1 <0>         0.1271
     66 H32         0.7334   -1.5820   -0.9007 H         1 <0>         0.4263
@<TRIPOS>BOND
     1    1    2 1
     2    1   35 1
     3    1   36 1
     4    1   37 1
     5    2    3 1
     6    2   32 1
     7    2   38 1
     8    3    4 1
     9    3   27 1
    10    3   39 1
    11    4   13 ar
    12    4    5 ar
    13    5    6 ar
    14    5   40 1
    15    6    7 ar
    16    6   41 1
    17    7   12 ar
    18    7    8 ar
    19    8    9 ar
    20    8   42 1
    21    9   10 ar
    22    9   14 1
    23   10   11 ar
    24   10   43 1
    25   11   12 ar
    26   11   44 1
    27   12   13 ar
    28   13   45 1
    29   14   15 1
    30   15   16 1
    31   15   46 1
    32   15   47 1
    33   16   21 ar
    34   16   17 ar
    35   17   18 ar
    36   17   48 1
    37   18   19 ar
    38   18   49 1
    39   19   20 ar
    40   19   22 1
    41   20   21 ar
    42   20   50 1
    43   21   51 1
    44   22   23 1
    45   22   52 1
    46   22   53 1
    47   23   24 2
    48   23   25 1
    49   25   26 1
    50   26   54 1
    51   26   55 1
    52   26   56 1
    53   27   31 1
    54   27   28 1
    55   28   29 2
    56   28   57 1
    57   29   30 1
    58   29   58 1
    59   30   31 2
    60   31   59 1
    61   32   33 1
    62   32   34 1
    63   32   66 1
    64   33   60 1
    65   33   61 1
    66   33   62 1
    67   34   63 1
    68   34   64 1
    69   34   65 1
@<TRIPOS>MOLECULE
CHEMBL179825
   67    70     0     0     0
SMALL
USER_CHARGES

@<TRIPOS>ATOM
      1 C1          0.3402    1.4524   -0.3196 C.3       1 <0>        -0.1928
      2 C2          0.2973   -0.0613   -0.1007 C.3       1 <0>         0.0129
      3 C3          0.7277   -0.3818    1.3321 C.3       1 <0>         0.1741
      4 C4          0.6411   -1.8686    1.5619 C.ar      1 <0>        -0.2096
      5 C5          1.2886   -2.7375    0.6854 C.ar      1 <0>        -0.1298
      6 C6          1.2303   -4.0853    0.8645 C.ar      1 <0>        -0.0764
      7 C7          0.5075   -4.6123    1.9489 C.ar      1 <0>         0.0117
      8 C8          0.4259   -5.9977    2.1654 C.ar      1 <0>        -0.1678
      9 C9         -0.2851   -6.4738    3.2297 C.ar      1 <0>         0.1751
     10 C10        -0.9341   -5.5999    4.1078 C.ar      1 <0>        -0.1741
     11 C11        -0.8745   -4.2537    3.9252 C.ar      1 <0>        -0.0603
     12 C12        -0.1507   -3.7285    2.8404 C.ar      1 <0>        -0.0967
     13 C13        -0.0637   -2.3426    2.6254 C.ar      1 <0>        -0.0293
     14 O1         -0.3633   -7.8143    3.4382 O.3       1 <0>        -0.2963
     15 C14        -1.1212   -8.2521    4.5678 C.3       1 <0>         0.1007
     16 C15        -1.0955   -9.7573    4.6371 C.ar      1 <0>        -0.1069
     17 C16        -2.0651  -10.4959    3.9850 C.ar      1 <0>        -0.0901
     18 C17        -2.0415  -11.8766    4.0487 C.ar      1 <0>        -0.1031
     19 C18        -1.0481  -12.5187    4.7641 C.ar      1 <0>        -0.0572
     20 C19        -0.0780  -11.7801    5.4154 C.ar      1 <0>        -0.1029
     21 C20        -0.0991  -10.3995    5.3482 C.ar      1 <0>        -0.0900
     22 C21        -1.0229  -14.0238    4.8343 C.3       1 <0>        -0.0800
     23 C22        -0.2020  -14.5663    3.6928 C.2       1 <0>         0.4605
     24 O2          0.3101  -13.8084    2.9033 O.2       1 <0>        -0.4997
     25 O3         -0.0397  -15.8914    3.5532 O.3       1 <0>        -0.3521
     26 C23         0.7507  -16.3354    2.4486 C.3       1 <0>         0.0331
     27 N1          2.1075    0.0648    1.5390 N.pl3     1 <0>        -0.4107
     28 C24         3.2097   -0.3540    0.8435 C.2       1 <0>         0.0166
     29 C25         4.2665    0.3063    1.3540 C.2       1 <0>         0.0238
     30 N2          3.8219    1.1064    2.3344 N.pl3     1 <0>        -0.4674
     31 C26         2.5289    0.9707    2.4475 C.cat     1 <0>         0.2996
     32 N3         -1.0704   -0.5495   -0.3220 N.4       1 <0>        -0.3787
     33 C27        -1.9940    0.1584    0.5745 C.3       1 <0>        -0.0657
     34 C28        -1.4581   -0.3040   -1.7175 C.3       1 <0>        -0.0529
     35 H1          1.3551    1.8146   -0.1554 H         1 <0>         0.0990
     36 H2          0.0336    1.6807   -1.3404 H         1 <0>         0.1043
     37 H3         -0.3375    1.9402    0.3810 H         1 <0>         0.0945
     38 H4          0.9750   -0.5490   -0.8014 H         1 <0>         0.1513
     39 H5          0.0702    0.1330    2.0327 H         1 <0>         0.1479
     40 H6          1.8446   -2.3352   -0.1485 H         1 <0>         0.1230
     41 H7          1.7365   -4.7466    0.1768 H         1 <0>         0.1440
     42 H8          0.9223   -6.6825    1.4938 H         1 <0>         0.1475
     43 H9         -1.4908   -5.9999    4.9423 H         1 <0>         0.1452
     44 H10        -1.3812   -3.5907    4.6108 H         1 <0>         0.1417
     45 H11        -0.5569   -1.6570    3.2986 H         1 <0>         0.1368
     46 H12        -0.6876   -7.8389    5.4784 H         1 <0>         0.0784
     47 H13        -2.1516   -7.9105    4.4685 H         1 <0>         0.0786
     48 H14        -2.8412   -9.9943    3.4261 H         1 <0>         0.1260
     49 H15        -2.7994  -12.4537    3.5398 H         1 <0>         0.1295
     50 H16         0.6980  -12.2817    5.9746 H         1 <0>         0.1296
     51 H17         0.6609   -9.8225    5.8540 H         1 <0>         0.1261
     52 H18        -0.5807  -14.3361    5.7804 H         1 <0>         0.1213
     53 H19        -2.0406  -14.4079    4.7646 H         1 <0>         0.1213
     54 H20         0.8015  -17.4242    2.4525 H         1 <0>         0.1065
     55 H21         0.2968  -15.9962    1.5175 H         1 <0>         0.0616
     56 H22         1.7567  -15.9244    2.5333 H         1 <0>         0.0616
     57 H23         3.2282   -1.0755    0.0401 H         1 <0>         0.2218
     58 H24         5.2924    0.2087    1.0307 H         1 <0>         0.2298
     59 H25         1.9003    1.4943    3.1526 H         1 <0>         0.2639
     60 H26        -3.0089   -0.2039    0.4103 H         1 <0>         0.1391
     61 H27        -1.7063   -0.0237    1.6100 H         1 <0>         0.1196
     62 H28        -1.9522    1.2279    0.3685 H         1 <0>         0.1330
     63 H29        -0.7109   -0.7355   -2.3835 H         1 <0>         0.1282
     64 H30        -2.4269   -0.7643   -1.9118 H         1 <0>         0.1365
     65 H31        -1.5243    0.7697   -1.8928 H         1 <0>         0.1294
     66 H32        -1.1091   -1.5395   -0.1314 H         1 <0>         0.4336
     67 H33         4.3738    1.6957    2.8721 H         1 <0>         0.4718
@<TRIPOS>BOND
     1    1    2 1
     2    1   35 1
     3    1   36 1
     4    1   37 1
     5    2    3 1
     6    2   32 1
     7    2   38 1
     8    3    4 1
     9    3   27 1
    10    3   39 1
    11    4   13 ar
    12    4    5 ar
    13    5    6 ar
    14    5   40 1
    15    6    7 ar
    16    6   41 1
    17    7   12 ar
    18    7    8 ar
    19    8    9 ar
    20    8   42 1
    21    9   10 ar
    22    9   14 1
    23   10   11 ar
    24   10   43 1
    25   11   12 ar
    26   11   44 1
    27   12   13 ar
    28   13   45 1
    29   14   15 1
    30   15   16 1
    31   15   46 1
    32   15   47 1
    33   16   21 ar
    34   16   17 ar
    35   17   18 ar
    36   17   48 1
    37   18   19 ar
    38   18   49 1
    39   19   20 ar
    40   19   22 1
    41   20   21 ar
    42   20   50 1
    43   21   51 1
    44   22   23 1
    45   22   52 1
    46   22   53 1
    47   23   24 2
    48   23   25 1
    49   25   26 1
    50   26   54 1
    51   26   55 1
    52   26   56 1
    53   27   31 1
    54   27   28 1
    55   28   29 2
    56   28   57 1
    57   29   30 1
    58   29   58 1
    59   30   31 2
    60   30   67 1
    61   31   59 1
    62   32   33 1
    63   32   34 1
    64   32   66 1
    65   33   60 1
    66   33   61 1
    67   33   62 1
    68   34   63 1
    69   34   64 1
    70   34   65 1
@<TRIPOS>MOLECULE
CHEMBL179825
   66    69     0     0     0
SMALL
USER_CHARGES

@<TRIPOS>ATOM
      1 C1          0.0466    1.4819    0.0539 C.3       1 <0>        -0.2206
      2 C2          0.0172   -0.0371    0.2343 C.3       1 <0>         0.0193
      3 C3         -1.4266   -0.5342    0.1385 C.3       1 <0>         0.1715
      4 C4         -2.2199   -0.0005    1.3034 C.ar      1 <0>        -0.1389
      5 C5         -2.5688    1.3484    1.3356 C.ar      1 <0>        -0.1199
      6 C6         -3.2847    1.8623    2.3728 C.ar      1 <0>        -0.0913
      7 C7         -3.6801    1.0226    3.4286 C.ar      1 <0>         0.0031
      8 C8         -4.4200    1.5177    4.5149 C.ar      1 <0>        -0.1603
      9 C9         -4.7872    0.6724    5.5228 C.ar      1 <0>         0.1542
     10 C10        -4.4358   -0.6808    5.4881 C.ar      1 <0>        -0.1815
     11 C11        -3.7196   -1.1906    4.4507 C.ar      1 <0>        -0.0622
     12 C12        -3.3255   -0.3494    3.3954 C.ar      1 <0>        -0.0880
     13 C13        -2.5897   -0.8443    2.3053 C.ar      1 <0>        -0.0521
     14 O1         -5.5031    1.1526    6.5733 O.3       1 <0>        -0.3020
     15 C14        -5.8579    0.2205    7.5967 C.3       1 <0>         0.1009
     16 C15        -6.6429    0.9285    8.6708 C.ar      1 <0>        -0.0995
     17 C16        -5.9850    1.5071    9.7400 C.ar      1 <0>        -0.0911
     18 C17        -6.7050    2.1566   10.7252 C.ar      1 <0>        -0.1038
     19 C18        -8.0830    2.2278   10.6409 C.ar      1 <0>        -0.0635
     20 C19        -8.7408    1.6500    9.5712 C.ar      1 <0>        -0.1035
     21 C20        -8.0204    1.0042    8.5838 C.ar      1 <0>        -0.0908
     22 C21        -8.8681    2.9349   11.7154 C.3       1 <0>        -0.0770
     23 C22        -9.0226    4.3888   11.3503 C.2       1 <0>         0.4588
     24 O2         -8.5442    4.8078   10.3229 O.2       1 <0>        -0.4965
     25 O3         -9.6915    5.2184   12.1664 O.3       1 <0>        -0.3540
     26 C23        -9.7992    6.5834   11.7576 C.3       1 <0>         0.0331
     27 N1         -2.0228   -0.0645   -1.1145 N.pl3     1 <0>        -0.4766
     28 C24        -2.5372   -0.8471   -2.1128 C.2       1 <0>        -0.0662
     29 C25        -2.9789   -0.0129   -3.0733 C.2       1 <0>        -0.0058
     30 N2         -2.7407    1.2447   -2.6725 N.2       1 <0>        -0.4723
     31 C26        -2.1727    1.2217   -1.4978 C.2       1 <0>         0.1682
     32 N3          0.8240   -0.6708   -0.8172 N.4       1 <0>        -0.3877
     33 C27         2.2102   -0.1935   -0.7252 C.3       1 <0>        -0.0507
     34 C28         0.7958   -2.1293   -0.6440 C.3       1 <0>        -0.0561
     35 H1          1.0464    1.8549    0.2762 H         1 <0>         0.0962
     36 H2         -0.2137    1.7308   -0.9749 H         1 <0>         0.0942
     37 H3         -0.6720    1.9423    0.7320 H         1 <0>         0.1228
     38 H4          0.4262   -0.2950    1.2112 H         1 <0>         0.1596
     39 H5         -1.4379   -1.6240    0.1601 H         1 <0>         0.1282
     40 H6         -2.2663    1.9957    0.5257 H         1 <0>         0.1314
     41 H7         -3.5473    2.9098    2.3848 H         1 <0>         0.1383
     42 H8         -4.6967    2.5609    4.5532 H         1 <0>         0.1418
     43 H9         -4.7371   -1.3300    6.2969 H         1 <0>         0.1381
     44 H10        -3.4546   -2.2375    4.4374 H         1 <0>         0.1366
     45 H11        -2.3156   -1.8881    2.2646 H         1 <0>         0.1312
     46 H12        -6.4657   -0.5761    7.1678 H         1 <0>         0.0754
     47 H13        -4.9529   -0.2059    8.0295 H         1 <0>         0.0753
     48 H14        -4.9084    1.4515    9.8058 H         1 <0>         0.1263
     49 H15        -6.1911    2.6080   11.5609 H         1 <0>         0.1276
     50 H16        -9.8174    1.7053    9.5055 H         1 <0>         0.1278
     51 H17        -8.5341    0.5560    7.7462 H         1 <0>         0.1266
     52 H18        -9.8528    2.4767   11.8071 H         1 <0>         0.1196
     53 H19        -8.3394    2.8531   12.6651 H         1 <0>         0.1196
     54 H20        -8.8022    7.0124   11.6572 H         1 <0>         0.0613
     55 H21       -10.3156    6.6360   10.7991 H         1 <0>         0.0614
     56 H22       -10.3620    7.1431   12.5047 H         1 <0>         0.1049
     57 H23        -2.5802   -1.9261   -2.1275 H         1 <0>         0.1818
     58 H24        -3.4435   -0.3053   -4.0034 H         1 <0>         0.1785
     59 H25        -1.8703    2.0878   -0.9278 H         1 <0>         0.2145
     60 H26         2.6193   -0.4514    0.2516 H         1 <0>         0.1256
     61 H27         2.8089   -0.6636   -1.5054 H         1 <0>         0.1277
     62 H28         2.2312    0.8887   -0.8537 H         1 <0>         0.1267
     63 H29        -0.2328   -2.4834   -0.7122 H         1 <0>         0.1192
     64 H30         1.3944   -2.5994   -1.4242 H         1 <0>         0.1310
     65 H31         1.2048   -2.3871    0.3329 H         1 <0>         0.1281
     66 H32         0.4454   -0.4320   -1.7215 H         1 <0>         0.4256
@<TRIPOS>BOND
     1    1    2 1
     2    1   35 1
     3    1   36 1
     4    1   37 1
     5    2    3 1
     6    2   32 1
     7    2   38 1
     8    3    4 1
     9    3   27 1
    10    3   39 1
    11    4   13 ar
    12    4    5 ar
    13    5    6 ar
    14    5   40 1
    15    6    7 ar
    16    6   41 1
    17    7   12 ar
    18    7    8 ar
    19    8    9 ar
    20    8   42 1
    21    9   10 ar
    22    9   14 1
    23   10   11 ar
    24   10   43 1
    25   11   12 ar
    26   11   44 1
    27   12   13 ar
    28   13   45 1
    29   14   15 1
    30   15   16 1
    31   15   46 1
    32   15   47 1
    33   16   21 ar
    34   16   17 ar
    35   17   18 ar
    36   17   48 1
    37   18   19 ar
    38   18   49 1
    39   19   20 ar
    40   19   22 1
    41   20   21 ar
    42   20   50 1
    43   21   51 1
    44   22   23 1
    45   22   52 1
    46   22   53 1
    47   23   24 2
    48   23   25 1
    49   25   26 1
    50   26   54 1
    51   26   55 1
    52   26   56 1
    53   27   31 1
    54   27   28 1
    55   28   29 2
    56   28   57 1
    57   29   30 1
    58   29   58 1
    59   30   31 2
    60   31   59 1
    61   32   33 1
    62   32   34 1
    63   32   66 1
    64   33   60 1
    65   33   61 1
    66   33   62 1
    67   34   63 1
    68   34   64 1
    69   34   65 1
@<TRIPOS>MOLECULE
CHEMBL376487
   69    75     0     0     0
SMALL
USER_CHARGES

@<TRIPOS>ATOM
      1 C1         -0.0031    1.4510   -0.1605 C.ar      1 <0>        -0.0681
      2 C2          1.1781    2.1272   -0.2670 C.ar      1 <0>        -0.1073
      3 C3          2.3848    1.4483   -0.1480 C.ar      1 <0>         0.0807
      4 C4          2.3949    0.0594    0.0830 C.ar      1 <0>         0.0402
      5 C5          1.1862   -0.6278    0.1916 C.ar      1 <0>         0.0077
      6 C6         -0.0123    0.0693    0.0692 C.ar      1 <0>        -0.1508
      7 C7         -1.2972   -0.6497    0.1823 C.2       1 <0>         0.5668
      8 O1         -1.3071   -1.8490    0.3817 O.2       1 <0>        -0.5284
      9 N1         -2.4588    0.0235    0.0645 N.am      1 <0>        -0.7164
     10 C8         -3.7335   -0.6898    0.1767 C.3       1 <0>         0.2308
     11 H1         -3.6376   -1.4922    0.9082 H         1 <0>         0.1073
     12 C9         -4.8246    0.2834    0.6274 C.3       1 <0>        -0.0413
     13 C10        -4.5177    0.7727    2.0193 C.2       1 <0>        -0.1752
     14 C11        -4.9894    0.2613    3.1674 C.2       1 <0>         0.0701
     15 N2         -4.4930    0.9649    4.2304 N.pl3     1 <0>        -0.5931
     16 H2         -4.6918    0.7815    5.1619 H         1 <0>         0.4180
     17 C12        -3.6674    1.9735    3.7800 C.ar      1 <0>         0.0888
     18 C13        -3.6431    1.8925    2.3760 C.ar      1 <0>        -0.0766
     19 C14        -2.8760    2.7962    1.6379 C.ar      1 <0>        -0.1051
     20 C15        -2.1421    3.7639    2.2949 C.ar      1 <0>         0.0850
     21 C16        -2.1657    3.8393    3.6849 C.ar      1 <0>        -0.1240
     22 C17        -2.9247    2.9580    4.4225 C.ar      1 <0>        -0.1083
     23 O2         -1.3930    4.6464    1.5814 O.3       1 <0>        -0.4964
     24 C18        -4.1025   -1.2729   -1.1630 C.2       1 <0>         0.0489
     25 C19        -3.2605   -1.1991   -2.2255 C.2       1 <0>        -0.2081
     26 S1         -4.2279   -2.0369   -3.4708 S.3       1 <0>         0.1020
     27 C20        -5.5744   -2.3841   -2.5224 C.2       1 <0>         0.0303
     28 N3         -5.2551   -1.8826   -1.3554 N.2       1 <0>        -0.5058
     29 N4          3.6941   -0.3259    0.1532 N.2       1 <0>        -0.4795
     30 C21         4.4705    0.7167   -0.0165 C.2       1 <0>         0.3597
     31 N5          3.7070    1.8378   -0.2065 N.pl3     1 <0>        -0.4735
     32 C22         4.2024    3.1981   -0.4309 C.3       1 <0>         0.1303
     33 C23         3.5816    3.7624   -1.7103 C.3       1 <0>        -0.1325
     34 C24         4.0990    5.1831   -1.9446 C.3       1 <0>        -0.1154
     35 C25         3.7141    6.0683   -0.7576 C.3       1 <0>        -0.1240
     36 C26         4.3348    5.5039    0.5219 C.3       1 <0>        -0.1149
     37 C27         3.8174    4.0833    0.7562 C.3       1 <0>        -0.1325
     38 C28         5.9476    0.6870   -0.0039 C.2       1 <0>        -0.1439
     39 C29         6.8560    1.8207    0.2137 C.2       1 <0>        -0.2087
     40 C30         8.0990    1.3188    0.1375 C.2       1 <0>        -0.0207
     41 O3          8.0257    0.0008   -0.1034 O.3       1 <0>        -0.1725
     42 C31         6.7500   -0.3980   -0.1855 C.2       1 <0>         0.0422
     43 H3         -0.9371    1.9860   -0.2496 H         1 <0>         0.1279
     44 H4          1.1748    3.1925   -0.4445 H         1 <0>         0.1298
     45 H5          1.1801   -1.6932    0.3683 H         1 <0>         0.1435
     46 H6         -2.4509    0.9803   -0.0946 H         1 <0>         0.3994
     47 H7         -4.8599    1.1316   -0.0563 H         1 <0>         0.0742
     48 H8         -5.7886   -0.2253    0.6254 H         1 <0>         0.0991
     49 H9         -5.6616   -0.5808    3.2409 H         1 <0>         0.1730
     50 H10        -2.8567    2.7385    0.5596 H         1 <0>         0.1199
     51 H11        -1.5878    4.5997    4.1892 H         1 <0>         0.1304
     52 H12        -2.9345    3.0246    5.5004 H         1 <0>         0.1240
     53 H13        -1.8654    5.4528    1.3332 H         1 <0>         0.3858
     54 H14        -2.2780   -0.7565   -2.2975 H         1 <0>         0.1885
     55 H15        -6.4802   -2.8991   -2.8063 H         1 <0>         0.2187
     56 H16         5.2875    3.1775   -0.5319 H         1 <0>         0.1122
     57 H17         3.8559    3.1318   -2.5560 H         1 <0>         0.0702
     58 H18         2.4965    3.7830   -1.6093 H         1 <0>         0.0759
     59 H19         5.1841    5.1625   -2.0457 H         1 <0>         0.0660
     60 H20         3.6568    5.5851   -2.8561 H         1 <0>         0.0721
     61 H21         4.0827    7.0804   -0.9245 H         1 <0>         0.0684
     62 H22         2.6289    6.0888   -0.6565 H         1 <0>         0.0664
     63 H23         5.4199    5.4834    0.4209 H         1 <0>         0.0649
     64 H24         4.0606    6.1346    1.3676 H         1 <0>         0.0722
     65 H25         2.7323    4.1038    0.8573 H         1 <0>         0.0761
     66 H26         4.2597    3.6812    1.6677 H         1 <0>         0.0695
     67 H27         6.5803    2.8487    0.3971 H         1 <0>         0.1574
     68 H28         9.0115    1.8851    0.2512 H         1 <0>         0.2102
     69 H29         6.4145   -1.4083   -0.3674 H         1 <0>         0.2185
@<TRIPOS>BOND
     1    1    6 ar
     2    1    2 ar
     3    1   43 1
     4    2    3 ar
     5    2   44 1
     6    3   31 1
     7    3    4 ar
     8    4    5 ar
     9    4   29 1
    10    5    6 ar
    11    5   45 1
    12    6    7 1
    13    7    8 2
    14    7    9 am
    15    9   10 1
    16    9   46 1
    17   10   11 1
    18   10   12 1
    19   10   24 1
    20   12   13 1
    21   12   47 1
    22   12   48 1
    23   13   18 1
    24   13   14 2
    25   14   15 1
    26   14   49 1
    27   15   16 1
    28   15   17 1
    29   17   22 ar
    30   17   18 ar
    31   18   19 ar
    32   19   20 ar
    33   19   50 1
    34   20   21 ar
    35   20   23 1
    36   21   22 ar
    37   21   51 1
    38   22   52 1
    39   23   53 1
    40   24   28 1
    41   24   25 2
    42   25   26 1
    43   25   54 1
    44   26   27 1
    45   27   28 2
    46   27   55 1
    47   29   30 2
    48   30   31 1
    49   30   38 1
    50   31   32 1
    51   32   37 1
    52   32   33 1
    53   32   56 1
    54   33   34 1
    55   33   57 1
    56   33   58 1
    57   34   35 1
    58   34   59 1
    59   34   60 1
    60   35   36 1
    61   35   61 1
    62   35   62 1
    63   36   37 1
    64   36   63 1
    65   36   64 1
    66   37   65 1
    67   37   66 1
    68   38   42 2
    69   38   39 1
    70   39   40 2
    71   39   67 1
    72   40   41 1
    73   40   68 1
    74   41   42 1
    75   42   69 1
@<TRIPOS>MOLECULE
CHEMBL595154
   46    49     0     0     0
SMALL
USER_CHARGES

@<TRIPOS>ATOM
      1 C1         -0.0226    1.3045   -0.0133 C.ar      1 <0>        -0.1585
      2 C2          1.1427    2.0063   -0.2621 C.ar      1 <0>        -0.0456
      3 C3          2.3592    1.3522   -0.2541 C.ar      1 <0>        -0.2153
      4 C4          2.4114   -0.0100    0.0044 C.ar      1 <0>         0.1817
      5 C5          1.2412   -0.7116    0.2541 C.ar      1 <0>        -0.2203
      6 C6          0.0267   -0.0528    0.2444 C.ar      1 <0>        -0.0339
      7 C7          1.2942   -2.1913    0.5346 C.3       1 <0>         0.5170
      8 F1         -0.0015   -2.6711    0.7538 F         1 <0>        -0.1791
      9 F2          1.8577   -2.8538   -0.5612 F         1 <0>        -0.1738
     10 F3          2.0757   -2.4226    1.6717 F         1 <0>        -0.1736
     11 O1          3.6071   -0.6559    0.0124 O.3       1 <0>        -0.2987
     12 C8          4.7798    0.1480   -0.1311 C.3       1 <0>         0.0873
     13 C9          5.0447    0.4027   -1.6168 C.3       1 <0>        -0.1650
     14 C10         6.2822    1.2933   -1.7653 C.3       1 <0>         0.1246
     15 N1          7.4035    0.6678   -1.0510 N.pl3     1 <0>        -0.5986
     16 C11         7.2244    0.2984    0.3597 C.3       1 <0>         0.1264
     17 C12         5.9763   -0.5811    0.4845 C.3       1 <0>        -0.1319
     18 C13         8.6123    0.4294   -1.6986 C.ar      1 <0>         0.3391
     19 C14         8.8583    0.9935   -2.9511 C.ar      1 <0>        -0.1491
     20 C15        10.0749    0.7273   -3.5550 C.ar      1 <0>        -0.0835
     21 C16        10.9788   -0.0878   -2.8744 C.ar      1 <0>         0.2356
     22 N2         10.6596   -0.5792   -1.6893 N.ar      1 <0>        -0.2053
     23 N3          9.5340   -0.3288   -1.1257 N.ar      1 <0>        -0.2726
     24 N4         12.2221   -0.3857   -3.4454 N.pl3     1 <0>        -0.4026
     25 C17        13.1640   -1.2474   -2.9444 C.2       1 <0>        -0.0266
     26 C18        14.2003   -1.2350   -3.8040 C.2       1 <0>        -0.0265
     27 N5         13.9052   -0.3910   -4.8039 N.2       1 <0>        -0.4748
     28 C19        12.7211    0.1199   -4.6036 C.2       1 <0>         0.1882
     29 H1         -0.9724    1.8186   -0.0159 H         1 <0>         0.1379
     30 H2          1.1015    3.0666   -0.4632 H         1 <0>         0.1362
     31 H3          3.2690    1.9006   -0.4491 H         1 <0>         0.1402
     32 H4         -0.8848   -0.5986    0.4384 H         1 <0>         0.1456
     33 H5          4.6324    1.0996    0.3796 H         1 <0>         0.0815
     34 H6          5.2168   -0.5468   -2.1236 H         1 <0>         0.0849
     35 H7          4.1825    0.9011   -2.0598 H         1 <0>         0.0883
     36 H8          6.5335    1.3966   -2.8209 H         1 <0>         0.0924
     37 H9          6.0791    2.2753   -1.3382 H         1 <0>         0.0783
     38 H10         8.0973   -0.2548    0.7063 H         1 <0>         0.1090
     39 H11         7.0981    1.1993    0.9602 H         1 <0>         0.0734
     40 H12         5.7771   -0.7829    1.5370 H         1 <0>         0.0919
     41 H13         6.1396   -1.5213   -0.0422 H         1 <0>         0.0835
     42 H14         8.1219    1.6184   -3.4345 H         1 <0>         0.1596
     43 H15        10.3167    1.1382   -4.5241 H         1 <0>         0.1591
     44 H16        13.0891   -1.8248   -2.0348 H         1 <0>         0.1841
     45 H17        15.1118   -1.8057   -3.7052 H         1 <0>         0.1785
     46 H18        12.2226    0.8280   -5.2490 H         1 <0>         0.2109
@<TRIPOS>BOND
     1    1    6 ar
     2    1    2 ar
     3    1   29 1
     4    2    3 ar
     5    2   30 1
     6    3    4 ar
     7    3   31 1
     8    4    5 ar
     9    4   11 1
    10    5    6 ar
    11    5    7 1
    12    6   32 1
    13    7    8 1
    14    7    9 1
    15    7   10 1
    16   11   12 1
    17   12   17 1
    18   12   13 1
    19   12   33 1
    20   13   14 1
    21   13   34 1
    22   13   35 1
    23   14   15 1
    24   14   36 1
    25   14   37 1
    26   15   16 1
    27   15   18 1
    28   16   17 1
    29   16   38 1
    30   16   39 1
    31   17   40 1
    32   17   41 1
    33   18   23 ar
    34   18   19 ar
    35   19   20 ar
    36   19   42 1
    37   20   21 ar
    38   20   43 1
    39   21   22 ar
    40   21   24 1
    41   22   23 ar
    42   24   28 1
    43   24   25 1
    44   25   26 2
    45   25   44 1
    46   26   27 1
    47   26   45 1
    48   27   28 2
    49   28   46 1
@<TRIPOS>MOLECULE
CHEMBL465289
   72    75     0     0     0
SMALL
USER_CHARGES

@<TRIPOS>ATOM
      1 C1          0.2147    2.3140   -3.2436 C.3       1 <0>        -0.1715
      2 C2          0.3233    1.6110   -1.8891 C.3       1 <0>         0.0884
      3 N1          0.8348    0.2521   -2.0838 N.am      1 <0>        -0.6069
      4 C3          2.2792    0.0152   -2.1468 C.3       1 <0>         0.1262
      5 C4          2.8127   -0.2605   -0.7396 C.3       1 <0>        -0.0959
      6 C5          4.2985   -0.5042   -0.8045 C.ar      1 <0>        -0.0820
      7 C6          4.7811   -1.7857   -0.9939 C.ar      1 <0>        -0.1147
      8 C7          6.1439   -2.0092   -1.0534 C.ar      1 <0>        -0.1198
      9 C8          7.0242   -0.9512   -0.9239 C.ar      1 <0>        -0.1218
     10 C9          6.5415    0.3304   -0.7355 C.ar      1 <0>        -0.1162
     11 C10         5.1786    0.5545   -0.6802 C.ar      1 <0>        -0.1152
     12 C11        -0.0233   -0.7801   -2.2049 C.2       1 <0>         0.5671
     13 O1          0.4006   -1.9169   -2.2843 O.2       1 <0>        -0.5245
     14 C12        -1.4778   -0.5304   -2.2412 C.ar      1 <0>        -0.1115
     15 C13        -2.1059    0.1159   -1.1762 C.ar      1 <0>        -0.0935
     16 C14        -3.4653    0.3466   -1.2154 C.ar      1 <0>        -0.1128
     17 C15        -4.2143   -0.0602   -2.3073 C.ar      1 <0>        -0.0965
     18 C16        -3.6099   -0.7011   -3.3700 C.ar      1 <0>        -0.1059
     19 C17        -2.2381   -0.9374   -3.3520 C.ar      1 <0>        -0.0156
     20 C18        -1.5841   -1.6195   -4.4935 C.ar      1 <0>        -0.0288
     21 C19        -0.5192   -1.0102   -5.1561 C.ar      1 <0>        -0.0991
     22 C20         0.0861   -1.6505   -6.2180 C.ar      1 <0>        -0.0882
     23 C21        -0.3615   -2.8944   -6.6256 C.ar      1 <0>        -0.0926
     24 C22        -1.4176   -3.5038   -5.9721 C.ar      1 <0>        -0.1142
     25 C23        -2.0275   -2.8756   -4.9055 C.ar      1 <0>        -0.0962
     26 C24         0.3036   -3.5880   -7.7864 C.3       1 <0>         0.0991
     27 N2          1.4093   -4.4192   -7.2919 N.3       1 <0>        -0.5337
     28 C25         0.9070   -5.5289   -6.4695 C.3       1 <0>         0.0254
     29 C26         2.0900   -6.3334   -5.9263 C.3       1 <0>         0.0325
     30 H1          2.7134   -5.6891   -5.3063 H         1 <0>         0.1469
     31 N3          2.8850   -6.8526   -7.0469 N.4       1 <0>        -0.5062
     32 C27         3.4001   -5.7320   -7.8447 C.3       1 <0>         0.0325
     33 H2          4.0168   -5.0908   -7.2149 H         1 <0>         0.1467
     34 C28         2.2280   -4.9226   -8.4039 C.3       1 <0>         0.0299
     35 C29         4.2430   -6.2741   -9.0008 C.3       1 <0>        -0.1820
     36 C30         1.5696   -7.5013   -5.0859 C.3       1 <0>        -0.1823
     37 H3          1.1991    2.3597   -3.7093 H         1 <0>         0.0593
     38 H4         -0.4666    1.7582   -3.8879 H         1 <0>         0.0565
     39 H5         -0.1660    3.3251   -3.0988 H         1 <0>         0.0723
     40 H6          1.0045    2.1668   -1.2448 H         1 <0>         0.0832
     41 H7         -0.6612    1.5653   -1.4234 H         1 <0>         0.0919
     42 H8          2.4788   -0.8449   -2.7860 H         1 <0>         0.0830
     43 H9          2.7742    0.8954   -2.5571 H         1 <0>         0.0800
     44 H10         2.6131    0.5995   -0.1004 H         1 <0>         0.0747
     45 H11         2.3177   -1.1407   -0.3294 H         1 <0>         0.0771
     46 H12         4.0933   -2.6122   -1.0950 H         1 <0>         0.1195
     47 H13         6.5210   -3.0105   -1.2006 H         1 <0>         0.1198
     48 H14         8.0889   -1.1260   -0.9697 H         1 <0>         0.1221
     49 H15         7.2293    1.1569   -0.6340 H         1 <0>         0.1238
     50 H16         4.8014    1.5563   -0.5367 H         1 <0>         0.1219
     51 H17        -1.5282    0.4351   -0.3214 H         1 <0>         0.1326
     52 H18        -3.9487    0.8471   -0.3894 H         1 <0>         0.1338
     53 H19        -5.2781    0.1249   -2.3271 H         1 <0>         0.1330
     54 H20        -4.2007   -1.0155   -4.2176 H         1 <0>         0.1314
     55 H21        -0.1691   -0.0390   -4.8390 H         1 <0>         0.1217
     56 H22         0.9108   -1.1794   -6.7323 H         1 <0>         0.1237
     57 H23        -1.7630   -4.4748   -6.2950 H         1 <0>         0.1196
     58 H24        -2.8490   -3.3543   -4.3932 H         1 <0>         0.1264
     59 H25        -0.4238   -4.2181   -8.2984 H         1 <0>         0.0556
     60 H26         0.6916   -2.8430   -8.4810 H         1 <0>         0.0965
     61 H27         0.3253   -5.1310   -5.6379 H         1 <0>         0.1280
     62 H28         0.2759   -6.1763   -7.0784 H         1 <0>         0.0603
     63 H29         3.6579   -7.3933   -6.6886 H         1 <0>         0.4290
     64 H30         1.6187   -5.5599   -9.0447 H         1 <0>         0.0613
     65 H31         2.6100   -4.0823   -8.9837 H         1 <0>         0.1233
     66 H32         3.6263   -6.9154   -9.6306 H         1 <0>         0.0807
     67 H33         4.6252   -5.4426   -9.5929 H         1 <0>         0.1086
     68 H34         5.0779   -6.8506   -8.6026 H         1 <0>         0.0858
     69 H35         0.9462   -8.1455   -5.7059 H         1 <0>         0.0805
     70 H36         2.4122   -8.0743   -4.6990 H         1 <0>         0.0859
     71 H37         0.9797   -7.1160   -4.2543 H         1 <0>         0.1094
     72 H38         2.3047   -7.4397   -7.6272 H         1 <0>         0.4208
@<TRIPOS>BOND
     1    1    2 1
     2    1   37 1
     3    1   38 1
     4    1   39 1
     5    2    3 1
     6    2   40 1
     7    2   41 1
     8    3    4 1
     9    3   12 am
    10    4    5 1
    11    4   42 1
    12    4   43 1
    13    5    6 1
    14    5   44 1
    15    5   45 1
    16    6   11 ar
    17    6    7 ar
    18    7    8 ar
    19    7   46 1
    20    8    9 ar
    21    8   47 1
    22    9   10 ar
    23    9   48 1
    24   10   11 ar
    25   10   49 1
    26   11   50 1
    27   12   13 2
    28   12   14 1
    29   14   19 ar
    30   14   15 ar
    31   15   16 ar
    32   15   51 1
    33   16   17 ar
    34   16   52 1
    35   17   18 ar
    36   17   53 1
    37   18   19 ar
    38   18   54 1
    39   19   20 1
    40   20   25 ar
    41   20   21 ar
    42   21   22 ar
    43   21   55 1
    44   22   23 ar
    45   22   56 1
    46   23   24 ar
    47   23   26 1
    48   24   25 ar
    49   24   57 1
    50   25   58 1
    51   26   27 1
    52   26   59 1
    53   26   60 1
    54   27   34 1
    55   27   28 1
    56   28   29 1
    57   28   61 1
    58   28   62 1
    59   29   30 1
    60   29   31 1
    61   29   36 1
    62   31   32 1
    63   31   63 1
    64   31   72 1
    65   32   33 1
    66   32   34 1
    67   32   35 1
    68   34   64 1
    69   34   65 1
    70   35   66 1
    71   35   67 1
    72   35   68 1
    73   36   69 1
    74   36   70 1
    75   36   71 1
@<TRIPOS>MOLECULE
CHEMBL1215552
   43    45     0     0     0
SMALL
USER_CHARGES

@<TRIPOS>ATOM
      1 C1          0.3004    1.4882    0.1858 C.3       1 <0>        -0.1317
      2 C2          0.1575   -0.0088    0.0875 C.2       1 <0>         0.2079
      3 C3         -1.0667   -0.5576    0.0619 C.2       1 <0>        -0.1405
      4 C4         -1.2575   -2.0440   -0.0443 C.3       1 <0>         0.0813
      5 C5          0.0178   -2.7692    0.2790 C.2       1 <0>        -0.1918
      6 C6          1.2021   -2.1321    0.2962 C.2       1 <0>         0.1632
      7 N1          1.2810   -0.7940    0.0195 N.pl3     1 <0>        -0.6263
      8 C7          2.4570   -2.9019    0.6182 C.3       1 <0>         0.1341
      9 N2          3.1318   -3.2784   -0.6264 N.pl3     1 <0>        -0.4640
     10 C8          2.9307   -4.4263   -1.3443 C.2       1 <0>        -0.0395
     11 C9          3.7502   -4.3673   -2.4113 C.2       1 <0>        -0.0242
     12 N3          4.4331   -3.2147   -2.3467 N.2       1 <0>        -0.4827
     13 C10         4.0642   -2.5549   -1.2829 C.2       1 <0>         0.1749
     14 C11        -0.0280   -4.1512    0.5720 C.2       1 <0>         0.5193
     15 O1         -0.1283   -4.9615   -0.3304 O.2       1 <0>        -0.4739
     16 O2          0.0394   -4.5722    1.8525 O.3       1 <0>        -0.3517
     17 C12        -0.0126   -5.9828    2.0752 C.3       1 <0>         0.0286
     18 C13        -1.6830   -2.3904   -1.4479 C.ar      1 <0>        -0.0826
     19 C14        -0.8598   -2.0830   -2.5151 C.ar      1 <0>        -0.0519
     20 C15        -1.2488   -2.4002   -3.8025 C.ar      1 <0>        -0.1445
     21 C16        -2.4640   -3.0264   -4.0243 C.ar      1 <0>         0.1184
     22 C17        -3.2880   -3.3346   -2.9558 C.ar      1 <0>        -0.1443
     23 C18        -2.8947   -3.0211   -1.6671 C.ar      1 <0>         0.0027
     24 Cl1        -3.9247   -3.4126   -0.3257 Cl        1 <0>        -0.0513
     25 F1         -2.8451   -3.3358   -5.2830 F         1 <0>        -0.1301
     26 C19        -2.2168    0.2923    0.1379 C.1       1 <0>         0.2611
     27 N4         -3.1291    0.9664    0.1982 N.1       1 <0>        -0.4121
     28 H1          1.3577    1.7529    0.1891 H         1 <0>         0.0838
     29 H2         -0.1888    1.9567   -0.6681 H         1 <0>         0.0940
     30 H3         -0.1646    1.8377    1.1077 H         1 <0>         0.0960
     31 H4         -2.0347   -2.3567    0.6530 H         1 <0>         0.1037
     32 H5          2.1332   -0.3982   -0.2214 H         1 <0>         0.4230
     33 H6          3.1213   -2.2795    1.2178 H         1 <0>         0.1233
     34 H7          2.1983   -3.8010    1.1775 H         1 <0>         0.1197
     35 H8          2.2465   -5.2259   -1.1015 H         1 <0>         0.1755
     36 H9          3.8415   -5.1166   -3.1837 H         1 <0>         0.1715
     37 H10         4.4437   -1.5913   -0.9768 H         1 <0>         0.2038
     38 H11         0.0509   -6.1843    3.1446 H         1 <0>         0.1057
     39 H12        -0.9510   -6.3777    1.6862 H         1 <0>         0.0650
     40 H13         0.8228   -6.4622    1.5649 H         1 <0>         0.0621
     41 H14         0.0877   -1.5944   -2.3425 H         1 <0>         0.1333
     42 H15        -0.6054   -2.1594   -4.6359 H         1 <0>         0.1431
     43 H16        -4.2360   -3.8226   -3.1277 H         1 <0>         0.1482
@<TRIPOS>BOND
     1    1    2 1
     2    1   28 1
     3    1   29 1
     4    1   30 1
     5    2    7 1
     6    2    3 2
     7    3    4 1
     8    3   26 1
     9    4    5 1
    10    4   18 1
    11    4   31 1
    12    5    6 2
    13    5   14 1
    14    6    7 1
    15    6    8 1
    16    7   32 1
    17    8    9 1
    18    8   33 1
    19    8   34 1
    20    9   13 1
    21    9   10 1
    22   10   11 2
    23   10   35 1
    24   11   12 1
    25   11   36 1
    26   12   13 2
    27   13   37 1
    28   14   15 2
    29   14   16 1
    30   16   17 1
    31   17   38 1
    32   17   39 1
    33   17   40 1
    34   18   23 ar
    35   18   19 ar
    36   19   20 ar
    37   19   41 1
    38   20   21 ar
    39   20   42 1
    40   21   22 ar
    41   21   25 1
    42   22   23 ar
    43   22   43 1
    44   23   24 1
    45   26   27 3
@<TRIPOS>MOLECULE
CHEMBL1215552
   44    46     0     0     0
SMALL
USER_CHARGES

@<TRIPOS>ATOM
      1 C1          0.3000    1.4882    0.1855 C.3       1 <0>        -0.1327
      2 C2          0.1574   -0.0088    0.0873 C.2       1 <0>         0.1982
      3 C3         -1.0668   -0.5578    0.0618 C.2       1 <0>        -0.1185
      4 C4         -1.2574   -2.0441   -0.0442 C.3       1 <0>         0.0717
      5 C5          0.0180   -2.7691    0.2791 C.2       1 <0>        -0.1558
      6 C6          1.2022   -2.1319    0.2962 C.2       1 <0>         0.1317
      7 N1          1.2810   -0.7938    0.0194 N.pl3     1 <0>        -0.6299
      8 C7          2.4572   -2.9015    0.6182 C.3       1 <0>         0.1280
      9 N2          3.1321   -3.2779   -0.6264 N.pl3     1 <0>        -0.4142
     10 C8          2.9307   -4.4258   -1.3445 C.2       1 <0>         0.0366
     11 C9          3.7504   -4.3667   -2.4114 C.2       1 <0>         0.0109
     12 N3          4.4336   -3.2143   -2.3465 N.pl3     1 <0>        -0.4684
     13 C10         4.0647   -2.5546   -1.2826 C.cat     1 <0>         0.2829
     14 C11        -0.0277   -4.1512    0.5722 C.2       1 <0>         0.5088
     15 O1         -0.1279   -4.9616   -0.3301 O.2       1 <0>        -0.4732
     16 O2          0.0400   -4.5720    1.8528 O.3       1 <0>        -0.3465
     17 C12        -0.0119   -5.9826    2.0757 C.3       1 <0>         0.0259
     18 C13        -1.6830   -2.3908   -1.4477 C.ar      1 <0>        -0.0891
     19 C14        -0.8598   -2.0834   -2.5150 C.ar      1 <0>        -0.0593
     20 C15        -1.2489   -2.4007   -3.8024 C.ar      1 <0>        -0.1488
     21 C16        -2.4640   -3.0271   -4.0241 C.ar      1 <0>         0.1258
     22 C17        -3.2879   -3.3353   -2.9554 C.ar      1 <0>        -0.1400
     23 C18        -2.8946   -3.0216   -1.6668 C.ar      1 <0>         0.0056
     24 Cl1        -3.9244   -3.4132   -0.3253 Cl        1 <0>        -0.0418
     25 F1         -2.8451   -3.3367   -5.2827 F         1 <0>        -0.1254
     26 C19        -2.2170    0.2920    0.1379 C.1       1 <0>         0.2470
     27 N4         -3.1294    0.9661    0.1982 N.1       1 <0>        -0.3899
     28 H1          1.3573    1.7530    0.1888 H         1 <0>         0.0837
     29 H2         -0.1893    1.9566   -0.6685 H         1 <0>         0.0965
     30 H3         -0.1649    1.8378    1.1074 H         1 <0>         0.0996
     31 H4         -2.0346   -2.3569    0.6532 H         1 <0>         0.1115
     32 H5          2.1331   -0.3979   -0.2216 H         1 <0>         0.4194
     33 H6          3.1214   -2.2791    1.2178 H         1 <0>         0.1514
     34 H7          2.1986   -3.8006    1.1776 H         1 <0>         0.1477
     35 H8          2.2464   -5.2252   -1.1019 H         1 <0>         0.2229
     36 H9          3.8416   -5.1160   -3.1839 H         1 <0>         0.2276
     37 H10         4.4444   -1.5911   -0.9763 H         1 <0>         0.2613
     38 H11        -0.9503   -6.3777    1.6867 H         1 <0>         0.0709
     39 H12         0.8235   -6.4620    1.5653 H         1 <0>         0.0635
     40 H13         0.0517   -6.1840    3.1450 H         1 <0>         0.1125
     41 H14         0.0876   -1.5946   -2.3425 H         1 <0>         0.1290
     42 H15        -0.6055   -2.1600   -4.6357 H         1 <0>         0.1426
     43 H16        -4.2359   -3.8234   -3.1273 H         1 <0>         0.1528
     44 H17         5.0947   -2.9164   -2.9908 H         1 <0>         0.4674
@<TRIPOS>BOND
     1    1    2 1
     2    1   28 1
     3    1   29 1
     4    1   30 1
     5    2    7 1
     6    2    3 2
     7    3    4 1
     8    3   26 1
     9    4    5 1
    10    4   18 1
    11    4   31 1
    12    5    6 2
    13    5   14 1
    14    6    7 1
    15    6    8 1
    16    7   32 1
    17    8    9 1
    18    8   33 1
    19    8   34 1
    20    9   13 1
    21    9   10 1
    22   10   11 2
    23   10   35 1
    24   11   12 1
    25   11   36 1
    26   12   13 2
    27   12   44 1
    28   13   37 1
    29   14   15 2
    30   14   16 1
    31   16   17 1
    32   17   38 1
    33   17   39 1
    34   17   40 1
    35   18   23 ar
    36   18   19 ar
    37   19   20 ar
    38   19   41 1
    39   20   21 ar
    40   20   42 1
    41   21   22 ar
    42   21   25 1
    43   22   23 ar
    44   22   43 1
    45   23   24 1
    46   26   27 3
@<TRIPOS>MOLECULE
CHEMBL1215552
   43    45     0     0     0
SMALL
USER_CHARGES

@<TRIPOS>ATOM
      1 C1          0.3217    1.4910    0.0680 C.3       1 <0>        -0.1316
      2 C2          0.1678   -0.0077    0.0316 C.2       1 <0>         0.2082
      3 C3         -1.0582   -0.5498    0.0914 C.2       1 <0>        -0.1401
      4 C4         -1.2593   -2.0384    0.0673 C.3       1 <0>         0.0807
      5 C5         -0.0189   -2.7357   -0.4145 C.2       1 <0>        -0.1934
      6 C6          1.1692   -2.1066   -0.4538 C.2       1 <0>         0.1645
      7 N1          1.2829   -0.8015   -0.0678 N.pl3     1 <0>        -0.6258
      8 C7          2.3891   -2.8490   -0.9351 C.3       1 <0>         0.1341
      9 N2          2.6313   -2.5288   -2.3440 N.pl3     1 <0>        -0.4633
     10 C8          2.1259   -3.1961   -3.4271 C.2       1 <0>        -0.0431
     11 C9          2.5969   -2.5723   -4.5237 C.2       1 <0>        -0.0235
     12 N3          3.3688   -1.5519   -4.1212 N.2       1 <0>        -0.4851
     13 C10         3.3900   -1.5166   -2.8169 C.2       1 <0>         0.1807
     14 C11        -0.1022   -4.0826   -0.8352 C.2       1 <0>         0.5219
     15 O1         -0.5547   -4.3504   -1.9326 O.2       1 <0>        -0.4809
     16 O2          0.3202   -5.0716   -0.0198 O.3       1 <0>        -0.3474
     17 C12         0.2065   -6.4092   -0.5095 C.3       1 <0>         0.0282
     18 C13        -1.5891   -2.5170    1.4576 C.ar      1 <0>        -0.0882
     19 C14        -0.6941   -2.3088    2.4905 C.ar      1 <0>        -0.0547
     20 C15        -0.9953   -2.7471    3.7658 C.ar      1 <0>        -0.1455
     21 C16        -2.1945   -3.3955    4.0100 C.ar      1 <0>         0.1181
     22 C17        -3.0909   -3.6036    2.9760 C.ar      1 <0>        -0.1444
     23 C18        -2.7900   -3.1594    1.7009 C.ar      1 <0>        -0.0017
     24 Cl1        -3.9161   -3.4145    0.4046 Cl        1 <0>        -0.0465
     25 F1         -2.4890   -3.8250    5.2565 F         1 <0>        -0.1297
     26 C19        -2.2002    0.3096    0.1807 C.1       1 <0>         0.2607
     27 N4         -3.1061    0.9914    0.2515 N.1       1 <0>        -0.4122
     28 H1          1.3788    1.7493    0.0051 H         1 <0>         0.0839
     29 H2         -0.2107    1.9314   -0.7750 H         1 <0>         0.0948
     30 H3         -0.0917    1.8762    1.0001 H         1 <0>         0.0943
     31 H4         -2.0874   -2.2778   -0.5997 H         1 <0>         0.1059
     32 H5          2.1567   -0.4355    0.1408 H         1 <0>         0.4238
     33 H6          3.2533   -2.5514   -0.3412 H         1 <0>         0.1217
     34 H7          2.2272   -3.9216   -0.8289 H         1 <0>         0.1200
     35 H8          1.4748   -4.0576   -3.4062 H         1 <0>         0.1754
     36 H9          2.3895   -2.8457   -5.5477 H         1 <0>         0.1721
     37 H10         3.9274   -0.7986   -2.2152 H         1 <0>         0.2036
     38 H11         0.5802   -7.1044    0.2423 H         1 <0>         0.1059
     39 H12        -0.8394   -6.6309   -0.7214 H         1 <0>         0.0648
     40 H13         0.7921   -6.5127   -1.4230 H         1 <0>         0.0623
     41 H14         0.2413   -1.8035    2.3004 H         1 <0>         0.1378
     42 H15        -0.2955   -2.5845    4.5721 H         1 <0>         0.1447
     43 H16        -4.0261   -4.1094    3.1653 H         1 <0>         0.1489
@<TRIPOS>BOND
     1    1    2 1
     2    1   28 1
     3    1   29 1
     4    1   30 1
     5    2    7 1
     6    2    3 2
     7    3    4 1
     8    3   26 1
     9    4    5 1
    10    4   18 1
    11    4   31 1
    12    5    6 2
    13    5   14 1
    14    6    7 1
    15    6    8 1
    16    7   32 1
    17    8    9 1
    18    8   33 1
    19    8   34 1
    20    9   13 1
    21    9   10 1
    22   10   11 2
    23   10   35 1
    24   11   12 1
    25   11   36 1
    26   12   13 2
    27   13   37 1
    28   14   15 2
    29   14   16 1
    30   16   17 1
    31   17   38 1
    32   17   39 1
    33   17   40 1
    34   18   23 ar
    35   18   19 ar
    36   19   20 ar
    37   19   41 1
    38   20   21 ar
    39   20   42 1
    40   21   22 ar
    41   21   25 1
    42   22   23 ar
    43   22   43 1
    44   23   24 1
    45   26   27 3
@<TRIPOS>MOLECULE
CHEMBL1215552
   44    46     0     0     0
SMALL
USER_CHARGES

@<TRIPOS>ATOM
      1 C1          0.3212    1.4910    0.0678 C.3       1 <0>        -0.1317
      2 C2          0.1676   -0.0077    0.0316 C.2       1 <0>         0.1948
      3 C3         -1.0584   -0.5500    0.0913 C.2       1 <0>        -0.1179
      4 C4         -1.2592   -2.0386    0.0673 C.3       1 <0>         0.0730
      5 C5         -0.0186   -2.7357   -0.4144 C.2       1 <0>        -0.1559
      6 C6          1.1693   -2.1065   -0.4537 C.2       1 <0>         0.1324
      7 N1          1.2828   -0.8013   -0.0678 N.pl3     1 <0>        -0.6323
      8 C7          2.3894   -2.8486   -0.9350 C.3       1 <0>         0.1278
      9 N2          2.6316   -2.5284   -2.3439 N.pl3     1 <0>        -0.4135
     10 C8          2.1260   -3.1955   -3.4270 C.2       1 <0>         0.0338
     11 C9          2.5972   -2.5717   -4.5235 C.2       1 <0>         0.0111
     12 N3          3.3694   -1.5515   -4.1210 N.pl3     1 <0>        -0.4698
     13 C10         3.3905   -1.5164   -2.8166 C.cat     1 <0>         0.2886
     14 C11        -0.1017   -4.0827   -0.8350 C.2       1 <0>         0.5112
     15 O1         -0.5542   -4.3506   -1.9325 O.2       1 <0>        -0.4803
     16 O2          0.3209   -5.0715   -0.0196 O.3       1 <0>        -0.3419
     17 C12         0.2074   -6.4092   -0.5093 C.3       1 <0>         0.0255
     18 C13        -1.5890   -2.5172    1.4576 C.ar      1 <0>        -0.1012
     19 C14        -0.6940   -2.3088    2.4905 C.ar      1 <0>        -0.0556
     20 C15        -0.9952   -2.7471    3.7658 C.ar      1 <0>        -0.1454
     21 C16        -2.1943   -3.3957    4.0100 C.ar      1 <0>         0.1275
     22 C17        -3.0906   -3.6040    2.9760 C.ar      1 <0>        -0.1428
     23 C18        -2.7897   -3.1598    1.7009 C.ar      1 <0>         0.0008
     24 Cl1        -3.9158   -3.4151    0.4045 Cl        1 <0>        -0.0432
     25 F1         -2.4888   -3.8252    5.2566 F         1 <0>        -0.1246
     26 C19        -2.2005    0.3092    0.1805 C.1       1 <0>         0.2469
     27 N4         -3.1065    0.9909    0.2513 N.1       1 <0>        -0.3907
     28 H1          1.3783    1.7495    0.0050 H         1 <0>         0.0830
     29 H2         -0.2112    1.9314   -0.7752 H         1 <0>         0.0958
     30 H3         -0.0922    1.8762    0.9999 H         1 <0>         0.0984
     31 H4         -2.0873   -2.2782   -0.5998 H         1 <0>         0.1128
     32 H5          2.1565   -0.4351    0.1408 H         1 <0>         0.4241
     33 H6          3.2535   -2.5509   -0.3410 H         1 <0>         0.1496
     34 H7          2.2276   -3.9213   -0.8288 H         1 <0>         0.1477
     35 H8          1.4747   -4.0567   -3.4061 H         1 <0>         0.2226
     36 H9          2.3896   -2.8449   -5.5476 H         1 <0>         0.2277
     37 H10         3.9281   -0.7985   -2.2149 H         1 <0>         0.2609
     38 H11        -0.8385   -6.6311   -0.7211 H         1 <0>         0.0709
     39 H12         0.7930   -6.5126   -1.4228 H         1 <0>         0.0636
     40 H13         0.5813   -7.1043    0.2425 H         1 <0>         0.1127
     41 H14         0.2413   -1.8034    2.3004 H         1 <0>         0.1365
     42 H15        -0.2954   -2.5843    4.5722 H         1 <0>         0.1474
     43 H16        -4.0258   -4.1100    3.1653 H         1 <0>         0.1525
     44 H17         3.8355   -0.9349   -4.7070 H         1 <0>         0.4673
@<TRIPOS>BOND
     1    1    2 1
     2    1   28 1
     3    1   29 1
     4    1   30 1
     5    2    7 1
     6    2    3 2
     7    3    4 1
     8    3   26 1
     9    4    5 1
    10    4   18 1
    11    4   31 1
    12    5    6 2
    13    5   14 1
    14    6    7 1
    15    6    8 1
    16    7   32 1
    17    8    9 1
    18    8   33 1
    19    8   34 1
    20    9   13 1
    21    9   10 1
    22   10   11 2
    23   10   35 1
    24   11   12 1
    25   11   36 1
    26   12   13 2
    27   12   44 1
    28   13   37 1
    29   14   15 2
    30   14   16 1
    31   16   17 1
    32   17   38 1
    33   17   39 1
    34   17   40 1
    35   18   23 ar
    36   18   19 ar
    37   19   20 ar
    38   19   41 1
    39   20   21 ar
    40   20   42 1
    41   21   22 ar
    42   21   25 1
    43   22   23 ar
    44   22   43 1
    45   23   24 1
    46   26   27 3
@<TRIPOS>MOLECULE
CHEMBL230964
   51    55     0     0     0
SMALL
USER_CHARGES

@<TRIPOS>ATOM
      1 C1         -0.0168    1.3863    0.0097 C.ar      1 <0>        -0.1606
      2 C2          1.1656    2.0939    0.0022 C.ar      1 <0>        -0.0355
      3 C3          2.3841    1.4146   -0.0131 C.ar      1 <0>        -0.1140
      4 C4          2.4013    0.0167   -0.0207 C.ar      1 <0>         0.1512
      5 C5          1.2131   -0.6857   -0.0131 C.ar      1 <0>        -0.1916
      6 C6          0.0021   -0.0041    0.0020 C.ar      1 <0>         0.2247
      7 N1         -1.1993   -0.7175    0.0096 N.am      1 <0>        -0.5720
      8 C7         -1.3390   -2.1872    0.0090 C.3       1 <0>         0.0651
      9 C8         -2.8237   -2.3749    0.4014 C.3       1 <0>         0.0537
     10 H1         -2.9269   -2.5182    1.4770 H         1 <0>         0.1297
     11 O1         -3.4035   -1.1211   -0.0086 O.3       1 <0>        -0.3090
     12 C9         -2.4370   -0.1879    0.0247 C.2       1 <0>         0.6495
     13 O2         -2.6567    1.0066    0.0607 O.2       1 <0>        -0.4793
     14 C10        -3.4479   -3.5428   -0.3650 C.3       1 <0>         0.1228
     15 N2         -4.8134   -3.7682    0.1156 N.pl3     1 <0>        -0.2985
     16 C11        -5.9285   -3.7982   -0.6502 C.2       1 <0>        -0.0388
     17 C12        -6.9598   -4.0324    0.1945 C.2       1 <0>        -0.0470
     18 N3         -6.4321   -4.1329    1.4196 N.2       1 <0>        -0.2609
     19 N4         -5.1578   -3.9771    1.3381 N.2       1 <0>        -0.0867
     20 F1          3.5788   -0.6455   -0.0359 F         1 <0>        -0.1253
     21 C13         3.6561    2.1724   -0.0216 C.ar      1 <0>        -0.0619
     22 C14         4.6727    1.8605    0.8873 C.ar      1 <0>        -0.0652
     23 C15         5.8423    2.5945    0.8423 C.ar      1 <0>        -0.1016
     24 C16         5.9695    3.6164   -0.1028 C.ar      1 <0>         0.0432
     25 N5          4.9814    3.8853   -0.9520 N.ar      1 <0>        -0.4419
     26 C17         3.8590    3.2059   -0.9427 C.ar      1 <0>         0.1167
     27 C18         7.2118    4.4051   -0.1587 C.2       1 <0>         0.3955
     28 O3          8.1167    4.1663    0.6122 O.2       1 <0>        -0.4163
     29 C19         7.3584    5.5089   -1.1741 C.3       1 <0>         0.0756
     30 N6          8.6739    6.1367   -1.0265 N.pl3     1 <0>        -0.4570
     31 C20         8.9807    7.1997   -0.2206 C.2       1 <0>        -0.0514
     32 C21        10.2932    7.4501   -0.3887 C.2       1 <0>        -0.0256
     33 N7         10.7746    6.5640   -1.2731 N.2       1 <0>        -0.4919
     34 C22         9.8115    5.7710   -1.6556 C.2       1 <0>         0.1893
     35 H2         -0.9598    1.9125    0.0260 H         1 <0>         0.1663
     36 H3          1.1491    3.1738    0.0077 H         1 <0>         0.1467
     37 H4          1.2245   -1.7657   -0.0190 H         1 <0>         0.1456
     38 H5         -1.1453   -2.5950   -0.9832 H         1 <0>         0.1098
     39 H6         -0.6812   -2.6398    0.7510 H         1 <0>         0.1207
     40 H7         -3.4713   -3.3080   -1.4291 H         1 <0>         0.1252
     41 H8         -2.8531   -4.4421   -0.2043 H         1 <0>         0.1324
     42 H9         -5.9845   -3.6622   -1.7202 H         1 <0>         0.1935
     43 H10        -8.0035   -4.1205   -0.0688 H         1 <0>         0.1933
     44 H11         4.5462    1.0653    1.6070 H         1 <0>         0.1455
     45 H12         6.6481    2.3815    1.5291 H         1 <0>         0.1512
     46 H13         3.0812    3.4501   -1.6512 H         1 <0>         0.1707
     47 H14         7.2643    5.0943   -2.1778 H         1 <0>         0.1347
     48 H15         6.5799    6.2550   -1.0148 H         1 <0>         0.1327
     49 H16         8.3008    7.7351    0.4256 H         1 <0>         0.1732
     50 H17        10.8589    8.2279    0.1025 H         1 <0>         0.1707
     51 H18         9.9076    4.9584   -2.3605 H         1 <0>         0.2031
@<TRIPOS>BOND
     1    1    6 ar
     2    1    2 ar
     3    1   35 1
     4    2    3 ar
     5    2   36 1
     6    3    4 ar
     7    3   21 1
     8    4    5 ar
     9    4   20 1
    10    5    6 ar
    11    5   37 1
    12    6    7 1
    13    7   12 am
    14    7    8 1
    15    8    9 1
    16    8   38 1
    17    8   39 1
    18    9   10 1
    19    9   11 1
    20    9   14 1
    21   11   12 1
    22   12   13 2
    23   14   15 1
    24   14   40 1
    25   14   41 1
    26   15   19 1
    27   15   16 1
    28   16   17 2
    29   16   42 1
    30   17   18 1
    31   17   43 1
    32   18   19 2
    33   21   26 ar
    34   21   22 ar
    35   22   23 ar
    36   22   44 1
    37   23   24 ar
    38   23   45 1
    39   24   25 ar
    40   24   27 1
    41   25   26 ar
    42   26   46 1
    43   27   28 2
    44   27   29 1
    45   29   30 1
    46   29   47 1
    47   29   48 1
    48   30   34 1
    49   30   31 1
    50   31   32 2
    51   31   49 1
    52   32   33 1
    53   32   50 1
    54   33   34 2
    55   34   51 1
@<TRIPOS>MOLECULE
CHEMBL230964
   52    56     0     0     0
SMALL
USER_CHARGES

@<TRIPOS>ATOM
      1 C1         -0.0168    1.3863    0.0097 C.ar      1 <0>        -0.1616
      2 C2          1.1656    2.0939    0.0022 C.ar      1 <0>        -0.0319
      3 C3          2.3841    1.4146   -0.0131 C.ar      1 <0>        -0.1295
      4 C4          2.4013    0.0167   -0.0207 C.ar      1 <0>         0.1552
      5 C5          1.2131   -0.6857   -0.0131 C.ar      1 <0>        -0.1925
      6 C6          0.0021   -0.0041    0.0020 C.ar      1 <0>         0.2344
      7 N1         -1.1993   -0.7175    0.0096 N.am      1 <0>        -0.5734
      8 C7         -1.3390   -2.1872    0.0090 C.3       1 <0>         0.0645
      9 C8         -2.8237   -2.3749    0.4014 C.3       1 <0>         0.0538
     10 H1         -2.9269   -2.5182    1.4770 H         1 <0>         0.1307
     11 O1         -3.4035   -1.1211   -0.0086 O.3       1 <0>        -0.3066
     12 C9         -2.4370   -0.1879    0.0247 C.2       1 <0>         0.6504
     13 O2         -2.6567    1.0066    0.0607 O.2       1 <0>        -0.4784
     14 C10        -3.4479   -3.5428   -0.3650 C.3       1 <0>         0.1231
     15 N2         -4.8134   -3.7682    0.1156 N.pl3     1 <0>        -0.3001
     16 C11        -5.9285   -3.7982   -0.6502 C.2       1 <0>        -0.0389
     17 C12        -6.9598   -4.0324    0.1945 C.2       1 <0>        -0.0454
     18 N3         -6.4321   -4.1329    1.4196 N.2       1 <0>        -0.2592
     19 N4         -5.1578   -3.9771    1.3381 N.2       1 <0>        -0.0875
     20 F1          3.5788   -0.6455   -0.0359 F         1 <0>        -0.1259
     21 C13         3.6561    2.1724   -0.0216 C.ar      1 <0>        -0.0386
     22 C14         4.6727    1.8605    0.8873 C.ar      1 <0>        -0.0671
     23 C15         5.8423    2.5945    0.8423 C.ar      1 <0>        -0.0902
     24 C16         5.9695    3.6164   -0.1028 C.ar      1 <0>         0.0225
     25 N5          4.9814    3.8853   -0.9520 N.ar      1 <0>        -0.4443
     26 C17         3.8590    3.2059   -0.9427 C.ar      1 <0>         0.1184
     27 C18         7.2118    4.4051   -0.1587 C.2       1 <0>         0.4072
     28 O3          8.1167    4.1663    0.6122 O.2       1 <0>        -0.4234
     29 C19         7.3584    5.5089   -1.1741 C.3       1 <0>         0.0619
     30 N6          8.6739    6.1367   -1.0265 N.pl3     1 <0>        -0.4070
     31 C20         8.9808    7.1994   -0.2202 C.2       1 <0>         0.0317
     32 C21        10.2932    7.4499   -0.3885 C.2       1 <0>         0.0062
     33 N7         10.7746    6.5642   -1.2733 N.pl3     1 <0>        -0.4735
     34 C22         9.8114    5.7712   -1.6559 C.cat     1 <0>         0.2970
     35 H2         -0.9598    1.9125    0.0260 H         1 <0>         0.1683
     36 H3          1.1491    3.1738    0.0077 H         1 <0>         0.1467
     37 H4          1.2245   -1.7657   -0.0190 H         1 <0>         0.1479
     38 H5         -1.1453   -2.5950   -0.9832 H         1 <0>         0.1110
     39 H6         -0.6812   -2.6398    0.7510 H         1 <0>         0.1214
     40 H7         -3.4713   -3.3080   -1.4291 H         1 <0>         0.1251
     41 H8         -2.8531   -4.4421   -0.2043 H         1 <0>         0.1326
     42 H9         -5.9845   -3.6622   -1.7202 H         1 <0>         0.1938
     43 H10        -8.0035   -4.1205   -0.0688 H         1 <0>         0.1941
     44 H11         4.5462    1.0653    1.6070 H         1 <0>         0.1503
     45 H12         6.6481    2.3815    1.5291 H         1 <0>         0.1523
     46 H13         3.0812    3.4501   -1.6512 H         1 <0>         0.1756
     47 H14         7.2643    5.0943   -2.1778 H         1 <0>         0.1610
     48 H15         6.5799    6.2550   -1.0148 H         1 <0>         0.1636
     49 H16         8.3010    7.7345    0.4263 H         1 <0>         0.2229
     50 H17        10.8590    8.2276    0.1030 H         1 <0>         0.2255
     51 H18         9.9074    4.9590   -2.3612 H         1 <0>         0.2599
     52 H19        11.6944    6.5180   -1.5779 H         1 <0>         0.4661
@<TRIPOS>BOND
     1    1    6 ar
     2    1    2 ar
     3    1   35 1
     4    2    3 ar
     5    2   36 1
     6    3    4 ar
     7    3   21 1
     8    4    5 ar
     9    4   20 1
    10    5    6 ar
    11    5   37 1
    12    6    7 1
    13    7   12 am
    14    7    8 1
    15    8    9 1
    16    8   38 1
    17    8   39 1
    18    9   10 1
    19    9   11 1
    20    9   14 1
    21   11   12 1
    22   12   13 2
    23   14   15 1
    24   14   40 1
    25   14   41 1
    26   15   19 1
    27   15   16 1
    28   16   17 2
    29   16   42 1
    30   17   18 1
    31   17   43 1
    32   18   19 2
    33   21   26 ar
    34   21   22 ar
    35   22   23 ar
    36   22   44 1
    37   23   24 ar
    38   23   45 1
    39   24   25 ar
    40   24   27 1
    41   25   26 ar
    42   26   46 1
    43   27   28 2
    44   27   29 1
    45   29   30 1
    46   29   47 1
    47   29   48 1
    48   30   34 1
    49   30   31 1
    50   31   32 2
    51   31   49 1
    52   32   33 1
    53   32   50 1
    54   33   34 2
    55   33   52 1
    56   34   51 1
@<TRIPOS>MOLECULE
CHEMBL593490
   61    66     0     0     0
SMALL
USER_CHARGES

@<TRIPOS>ATOM
      1 C1         -0.0184    1.5028    0.0103 C.3       1 <0>        -0.0779
      2 C2          0.0021   -0.0041    0.0020 C.2       1 <0>         0.1042
      3 C3          0.0084   -0.8581   -1.1821 C.ar      1 <0>        -0.1798
      4 C4         -0.0022   -0.6080   -2.5573 C.ar      1 <0>        -0.0151
      5 C5          0.0081   -1.6742   -3.4435 C.ar      1 <0>        -0.1083
      6 C6          0.0290   -2.9899   -2.9630 C.ar      1 <0>        -0.0417
      7 C7          0.0390   -3.2413   -1.6233 C.ar      1 <0>        -0.1371
      8 C8          0.0294   -2.1860   -0.7124 C.ar      1 <0>         0.1452
      9 N1          0.0351   -2.1193    0.6567 N.pl3     1 <0>        -0.5035
     10 H1          0.0487   -2.8812    1.2569 H         1 <0>         0.4446
     11 N2          0.0230   -0.7772    1.0497 N.2       1 <0>        -0.2433
     12 C9         -0.0035   -1.4210   -4.9043 C.ar      1 <0>        -0.0322
     13 C10        -0.9355   -0.5478   -5.4653 C.ar      1 <0>        -0.0853
     14 C11        -0.9051   -0.3436   -6.8395 C.ar      1 <0>         0.0593
     15 C12         0.0427   -1.0081   -7.6063 C.ar      1 <0>         0.0318
     16 N3          0.9125   -1.8281   -7.0523 N.ar      1 <0>        -0.4335
     17 C13         0.9273   -2.0517   -5.7455 C.ar      1 <0>         0.1998
     18 C14         1.9297   -2.9782   -5.1692 C.2       1 <0>        -0.1593
     19 C15         2.4700   -4.1950   -5.7872 C.2       1 <0>        -0.1833
     20 C16         3.3423   -4.7046   -4.9018 C.2       1 <0>        -0.0338
     21 O1          3.3771   -3.9146   -3.8179 O.3       1 <0>        -0.1727
     22 C17         2.5441   -2.8742   -3.9610 C.2       1 <0>         0.0146
     23 O2         -1.7953    0.4986   -7.4278 O.3       1 <0>        -0.3219
     24 C18        -1.7005    0.6562   -8.8449 C.3       1 <0>         0.0262
     25 C19        -2.7757    1.6345   -9.3223 C.3       1 <0>         0.0434
     26 H2         -3.7544    1.2903   -8.9878 H         1 <0>         0.1529
     27 C20        -2.7559    1.7081  -10.8504 C.3       1 <0>        -0.0556
     28 C21        -3.8928    2.5754  -11.3263 C.2       1 <0>        -0.2373
     29 C22        -5.1087    2.1573  -11.7119 C.2       1 <0>         0.1038
     30 N4         -5.8763    3.2293  -12.0778 N.pl3     1 <0>        -0.5846
     31 H3         -6.7924    3.1772  -12.3925 H         1 <0>         0.4265
     32 C23        -5.1548    4.3930  -11.9329 C.ar      1 <0>         0.0988
     33 C24        -3.8827    4.0350  -11.4497 C.ar      1 <0>        -0.1171
     34 C25        -2.9289    5.0233  -11.2002 C.ar      1 <0>        -0.1139
     35 C26        -3.2375    6.3357  -11.4234 C.ar      1 <0>        -0.1191
     36 C27        -4.4922    6.6944  -11.8961 C.ar      1 <0>        -0.0932
     37 C28        -5.4454    5.7344  -12.1579 C.ar      1 <0>        -0.1111
     38 N5         -2.5081    2.9668   -8.7643 N.4       1 <0>        -0.6362
     39 H4          1.0042    1.8801    0.0026 H         1 <0>         0.0860
     40 H5         -0.5455    1.8639   -0.8728 H         1 <0>         0.0806
     41 H6         -0.5286    1.8543    0.9071 H         1 <0>         0.0829
     42 H7         -0.0187    0.4068   -2.9262 H         1 <0>         0.1312
     43 H8          0.0369   -3.8138   -3.6613 H         1 <0>         0.1335
     44 H9          0.0543   -4.2606   -1.2666 H         1 <0>         0.1337
     45 H10        -1.6631   -0.0432   -4.8469 H         1 <0>         0.1492
     46 H11         0.0672   -0.8505   -8.6745 H         1 <0>         0.1591
     47 H12         2.2173   -4.5988   -6.7565 H         1 <0>         0.1550
     48 H13         3.9220   -5.6053   -5.0401 H         1 <0>         0.2077
     49 H14         2.3861   -2.0877   -3.2379 H         1 <0>         0.2036
     50 H15        -0.7153    1.0452   -9.1021 H         1 <0>         0.0917
     51 H16        -1.8474   -0.3095   -9.3285 H         1 <0>         0.1134
     52 H17        -1.8095    2.1358  -11.1813 H         1 <0>         0.0998
     53 H18        -2.8659    0.7056  -11.2639 H         1 <0>         0.1216
     54 H19        -5.4329    1.1273  -11.7309 H         1 <0>         0.1790
     55 H20        -1.9508    4.7517  -10.8316 H         1 <0>         0.1149
     56 H21        -2.4993    7.1000  -11.2302 H         1 <0>         0.1312
     57 H22        -4.7214    7.7359  -12.0670 H         1 <0>         0.1352
     58 H23        -6.4193    6.0237  -12.5244 H         1 <0>         0.1293
     59 H24        -1.6021    3.2853   -9.0740 H         1 <0>         0.4298
     60 H25        -3.2171    3.6119   -9.0792 H         1 <0>         0.4379
     61 H26        -2.5211    2.9182   -7.7566 H         1 <0>         0.4394
@<TRIPOS>BOND
     1    1    2 1
     2    1   39 1
     3    1   40 1
     4    1   41 1
     5    2   11 2
     6    2    3 1
     7    3    8 ar
     8    3    4 ar
     9    4    5 ar
    10    4   42 1
    11    5    6 ar
    12    5   12 1
    13    6    7 ar
    14    6   43 1
    15    7    8 ar
    16    7   44 1
    17    8    9 1
    18    9   10 1
    19    9   11 1
    20   12   17 ar
    21   12   13 ar
    22   13   14 ar
    23   13   45 1
    24   14   15 ar
    25   14   23 1
    26   15   16 ar
    27   15   46 1
    28   16   17 ar
    29   17   18 1
    30   18   22 2
    31   18   19 1
    32   19   20 2
    33   19   47 1
    34   20   21 1
    35   20   48 1
    36   21   22 1
    37   22   49 1
    38   23   24 1
    39   24   25 1
    40   24   50 1
    41   24   51 1
    42   25   26 1
    43   25   27 1
    44   25   38 1
    45   27   28 1
    46   27   52 1
    47   27   53 1
    48   28   33 1
    49   28   29 2
    50   29   30 1
    51   29   54 1
    52   30   31 1
    53   30   32 1
    54   32   37 ar
    55   32   33 ar
    56   33   34 ar
    57   34   35 ar
    58   34   55 1
    59   35   36 ar
    60   35   56 1
    61   36   37 ar
    62   36   57 1
    63   37   58 1
    64   38   59 1
    65   38   60 1
    66   38   61 1
@<TRIPOS>MOLECULE
CHEMBL565383
   70    74     0     0     0
SMALL
USER_CHARGES

@<TRIPOS>ATOM
      1 C1         -8.1897   -3.9970   -0.3624 C.3       1 <0>        -0.0743
      2 C2         -6.8080   -4.5907   -0.2653 C.2       1 <0>         0.0136
      3 C3         -5.6919   -3.8973   -0.0031 C.2       1 <0>        -0.2136
      4 C4         -4.5943   -4.8722   -0.0048 C.ar      1 <0>        -0.1088
      5 C5         -3.2177   -4.7880    0.1974 C.ar      1 <0>        -0.1514
      6 C6         -2.4461   -5.9337    0.1236 C.ar      1 <0>         0.1798
      7 C7         -3.0431   -7.1623   -0.1514 C.ar      1 <0>        -0.1451
      8 C8         -4.4027   -7.2523   -0.3522 C.ar      1 <0>        -0.0982
      9 C9         -5.1937   -6.1121   -0.2815 C.ar      1 <0>         0.0054
     10 O1         -6.5175   -5.8937   -0.4235 O.3       1 <0>        -0.2017
     11 N1         -1.0621   -5.8586    0.3254 N.pl3     1 <0>        -0.6540
     12 C10        -0.2782   -6.9513    0.0923 C.2       1 <0>         0.6295
     13 N2          1.0404   -6.8475    0.1624 N.2       1 <0>        -0.7082
     14 C11         1.6125   -5.6411    0.2686 C.2       1 <0>         0.5166
     15 O2          0.9312   -4.6346    0.1871 O.2       1 <0>        -0.6203
     16 C12         3.0736   -5.5309    0.4851 C.ar      1 <0>        -0.0807
     17 C13         3.8824   -6.6726    0.4728 C.ar      1 <0>        -0.0275
     18 C14         5.2417   -6.5165    0.6796 C.ar      1 <0>        -0.1394
     19 C15         5.7534   -5.2488    0.8899 C.ar      1 <0>         0.0696
     20 N3          4.9660   -4.1890    0.8967 N.ar      1 <0>        -0.1218
     21 O3          5.5342   -2.9108    1.1165 O.3       1 <0>        -0.5668
     22 C16         3.6663   -4.2871    0.6987 C.ar      1 <0>         0.1071
     23 N4         -0.8528   -8.1503   -0.2128 N.2       1 <0>        -0.6651
     24 C17        -0.0114   -9.3232   -0.4630 C.3       1 <0>         0.1220
     25 H1          0.5891   -9.5384    0.4210 H         1 <0>         0.0569
     26 C18        -0.8948  -10.5294   -0.7907 C.3       1 <0>        -0.0960
     27 C19        -0.1755  -11.8264   -0.4671 C.3       1 <0>        -0.1132
     28 C20         1.0295  -12.0956   -1.3498 C.3       1 <0>        -0.1490
     29 C21         2.1379  -11.0748   -1.0855 C.3       1 <0>         0.1201
     30 N5          1.8975   -9.8903   -1.9256 N.am      1 <0>        -0.6040
     31 C22         0.8986   -9.0542   -1.6430 C.2       1 <0>         0.5269
     32 O4          0.7151   -8.0769   -2.3373 O.2       1 <0>        -0.5275
     33 C23         2.7649   -9.6260   -3.0763 C.3       1 <0>         0.1035
     34 C24         2.1962  -10.2986   -4.2991 C.2       1 <0>         0.5137
     35 O5          1.1676  -10.9360   -4.2174 O.2       1 <0>        -0.5215
     36 N6          2.8306  -10.1918   -5.4834 N.am      1 <0>        -0.6252
     37 C25         4.0826   -9.4589   -5.7217 C.3       1 <0>         0.0978
     38 C26         4.4127   -9.5919   -7.2234 C.3       1 <0>        -0.1312
     39 C27         3.0330   -9.9154   -7.8551 C.3       1 <0>        -0.1348
     40 C28         2.3875  -10.7960   -6.7530 C.3       1 <0>         0.1061
     41 H2         -8.9098   -4.7859   -0.5799 H         1 <0>         0.0738
     42 H3         -8.4477   -3.5204    0.5833 H         1 <0>         0.0827
     43 H4         -8.2112   -3.2553   -1.1608 H         1 <0>         0.0827
     44 H5         -5.6151   -2.8346    0.1734 H         1 <0>         0.1470
     45 H6         -2.7567   -3.8347    0.4097 H         1 <0>         0.1157
     46 H7         -2.4339   -8.0523   -0.2081 H         1 <0>         0.2347
     47 H8         -4.8544   -8.2100   -0.5651 H         1 <0>         0.1209
     48 H9         -0.6607   -5.0300    0.6307 H         1 <0>         0.4212
     49 H10         3.4565   -7.6510    0.3065 H         1 <0>         0.1628
     50 H11         5.8962   -7.3756    0.6771 H         1 <0>         0.1612
     51 H12         6.8139   -5.1239    1.0516 H         1 <0>         0.1769
     52 H13         3.0549   -3.3969    0.7063 H         1 <0>         0.1858
     53 H14        -1.8122  -10.4721   -0.2049 H         1 <0>         0.0743
     54 H15        -1.1454  -10.5131   -1.8514 H         1 <0>         0.0579
     55 H16         0.1545  -11.7915    0.5712 H         1 <0>         0.0565
     56 H17        -0.8792  -12.6514   -0.5778 H         1 <0>         0.0567
     57 H18         1.4079  -13.0969   -1.1440 H         1 <0>         0.0614
     58 H19         0.7284  -12.0349   -2.3956 H         1 <0>         0.0902
     59 H20         2.1264  -10.7862   -0.0345 H         1 <0>         0.0770
     60 H21         3.1046  -11.5113   -1.3368 H         1 <0>         0.0711
     61 H22         2.8242   -8.5511   -3.2473 H         1 <0>         0.1076
     62 H23         3.7624  -10.0177   -2.8769 H         1 <0>         0.0954
     63 H24         3.9522   -8.4082   -5.4625 H         1 <0>         0.0702
     64 H25         4.8855   -9.8930   -5.1258 H         1 <0>         0.0684
     65 H26         4.8064   -8.6544   -7.6162 H         1 <0>         0.0822
     66 H27         5.1153  -10.4077   -7.3930 H         1 <0>         0.0760
     67 H28         2.4560   -9.0055   -8.0206 H         1 <0>         0.0766
     68 H29         3.1497  -10.4763   -8.7824 H         1 <0>         0.0825
     69 H30         2.7430  -11.8236   -6.8286 H         1 <0>         0.0648
     70 H31         1.3007  -10.7630   -6.8298 H         1 <0>         0.0763
@<TRIPOS>BOND
     1    1    2 1
     2    1   41 1
     3    1   42 1
     4    1   43 1
     5    2   10 1
     6    2    3 2
     7    3    4 1
     8    3   44 1
     9    4    9 ar
    10    4    5 ar
    11    5    6 ar
    12    5   45 1
    13    6    7 ar
    14    6   11 1
    15    7    8 ar
    16    7   46 1
    17    8    9 ar
    18    8   47 1
    19    9   10 1
    20   11   12 1
    21   11   48 1
    22   12   13 2
    23   12   23 1
    24   13   14 1
    25   14   15 2
    26   14   16 1
    27   16   22 ar
    28   16   17 ar
    29   17   18 ar
    30   17   49 1
    31   18   19 ar
    32   18   50 1
    33   19   20 ar
    34   19   51 1
    35   20   21 1
    36   20   22 ar
    37   22   52 1
    38   23   24 1
    39   24   25 1
    40   24   31 1
    41   24   26 1
    42   26   27 1
    43   26   53 1
    44   26   54 1
    45   27   28 1
    46   27   55 1
    47   27   56 1
    48   28   29 1
    49   28   57 1
    50   28   58 1
    51   29   30 1
    52   29   59 1
    53   29   60 1
    54   30   31 am
    55   30   33 1
    56   31   32 2
    57   33   34 1
    58   33   61 1
    59   33   62 1
    60   34   35 2
    61   34   36 am
    62   36   40 1
    63   36   37 1
    64   37   38 1
    65   37   63 1
    66   37   64 1
    67   38   39 1
    68   38   65 1
    69   38   66 1
    70   39   40 1
    71   39   67 1
    72   39   68 1
    73   40   69 1
    74   40   70 1
@<TRIPOS>MOLECULE
CHEMBL565383
   70    74     0     0     0
SMALL
USER_CHARGES

@<TRIPOS>ATOM
      1 C1          5.6366   -1.0582    0.9955 C.3       1 <0>        -0.0736
      2 C2          4.5941   -2.1465    0.9904 C.2       1 <0>         0.0113
      3 C3          4.5411   -3.1537    0.1083 C.2       1 <0>        -0.2157
      4 C4          3.3745   -3.9632    0.4809 C.ar      1 <0>        -0.1042
      5 C5          2.7902   -5.1210   -0.0301 C.ar      1 <0>        -0.1322
      6 C6          1.6601   -5.6395    0.5762 C.ar      1 <0>         0.2031
      7 C7          1.1112   -5.0067    1.6897 C.ar      1 <0>        -0.1156
      8 C8          1.6837   -3.8625    2.1995 C.ar      1 <0>        -0.0996
      9 C9          2.8194   -3.3276    1.6038 C.ar      1 <0>        -0.0082
     10 O1          3.5860   -2.2506    1.8736 O.3       1 <0>        -0.2041
     11 N1          1.0661   -6.8025    0.0696 N.2       1 <0>        -0.6739
     12 C10        -0.2892   -6.9545    0.1209 C.2       1 <0>         0.6481
     13 N2         -1.0640   -5.9090    0.3678 N.2       1 <0>        -0.7134
     14 C11        -2.3473   -6.0913    0.7054 C.2       1 <0>         0.5167
     15 O2         -2.7705   -7.2159    0.9058 O.2       1 <0>        -0.6152
     16 C12        -3.2518   -4.9257    0.8351 C.ar      1 <0>        -0.0865
     17 C13        -2.8100   -3.6418    0.4970 C.ar      1 <0>        -0.0253
     18 C14        -3.6935   -2.5858    0.6354 C.ar      1 <0>        -0.1387
     19 C15        -4.9735   -2.8302    1.0992 C.ar      1 <0>         0.0711
     20 N3         -5.3629   -4.0525    1.4112 N.ar      1 <0>        -0.1231
     21 O3         -6.6827   -4.2551    1.8826 O.3       1 <0>        -0.5686
     22 C16        -4.5592   -5.0905    1.2906 C.ar      1 <0>         0.1080
     23 N4         -0.8459   -8.1832   -0.0823 N.pl3     1 <0>        -0.6960
     24 C17         0.0129   -9.3601   -0.2362 C.3       1 <0>         0.1520
     25 H1          0.8756   -9.2728    0.4243 H         1 <0>         0.1044
     26 C18        -0.7776  -10.6230    0.1145 C.3       1 <0>        -0.1222
     27 C19         0.1557  -11.7372    0.5522 C.3       1 <0>        -0.1119
     28 C20         1.0570  -12.2521   -0.5551 C.3       1 <0>        -0.1506
     29 C21         2.0629  -11.1812   -0.9817 C.3       1 <0>         0.1145
     30 N5          1.4378  -10.3295   -2.0067 N.am      1 <0>        -0.5959
     31 C22         0.4804   -9.4643   -1.6727 C.2       1 <0>         0.5232
     32 O4         -0.0216   -8.7617   -2.5242 O.2       1 <0>        -0.5330
     33 C23         1.8747  -10.4296   -3.4014 C.3       1 <0>         0.1027
     34 C24         1.0446  -11.4657   -4.1146 C.2       1 <0>         0.5146
     35 O5          0.1739  -12.0617   -3.5168 O.2       1 <0>        -0.5236
     36 N6          1.2699  -11.7298   -5.4169 N.am      1 <0>        -0.6240
     37 C25         2.2925  -11.0891   -6.2568 C.3       1 <0>         0.0965
     38 C26         2.1620  -11.6867   -7.6736 C.3       1 <0>        -0.1311
     39 C27         0.7043  -12.2180   -7.6938 C.3       1 <0>        -0.1347
     40 C28         0.5360  -12.7137   -6.2335 C.3       1 <0>         0.1057
     41 H2          5.4441   -0.3746    1.8223 H         1 <0>         0.0724
     42 H3          6.6249   -1.5024    1.1139 H         1 <0>         0.0813
     43 H4          5.5948   -0.5106    0.0540 H         1 <0>         0.0816
     44 H5          5.2199   -3.3336   -0.7123 H         1 <0>         0.1443
     45 H6          3.2166   -5.6097   -0.8937 H         1 <0>         0.1106
     46 H7          0.2284   -5.4171    2.1572 H         1 <0>         0.1257
     47 H8          1.2493   -3.3804    3.0628 H         1 <0>         0.1110
     48 H9         -1.8047   -3.4790    0.1374 H         1 <0>         0.1671
     49 H10        -3.3867   -1.5812    0.3842 H         1 <0>         0.1621
     50 H11        -5.6652   -2.0080    1.2083 H         1 <0>         0.1770
     51 H12        -4.9151   -6.0764    1.5510 H         1 <0>         0.1858
     52 H13        -1.8103   -8.2777   -0.1248 H         1 <0>         0.4170
     53 H14        -1.4725  -10.3983    0.9236 H         1 <0>         0.0823
     54 H15        -1.3400  -10.9489   -0.7605 H         1 <0>         0.0667
     55 H16         0.7801  -11.3685    1.3659 H         1 <0>         0.0629
     56 H17        -0.4443  -12.5667    0.9265 H         1 <0>         0.0644
     57 H18         1.5969  -13.1294   -0.1989 H         1 <0>         0.0684
     58 H19         0.4461  -12.5322   -1.4133 H         1 <0>         0.0922
     59 H20         2.3381  -10.5738   -0.1196 H         1 <0>         0.0820
     60 H21         2.9517  -11.6582   -1.3949 H         1 <0>         0.0781
     61 H22         1.7500   -9.4639   -3.8914 H         1 <0>         0.1114
     62 H23         2.9247  -10.7204   -3.4333 H         1 <0>         0.1015
     63 H24         2.1228  -10.0130   -6.2913 H         1 <0>         0.0716
     64 H25         3.2847  -11.2974   -5.8566 H         1 <0>         0.0697
     65 H26         2.3020  -10.9161   -8.4316 H         1 <0>         0.0829
     66 H27         2.8716  -12.5019   -7.8152 H         1 <0>         0.0765
     67 H28         0.0000  -11.4180   -7.9220 H         1 <0>         0.0769
     68 H29         0.5987  -13.0424   -8.3990 H         1 <0>         0.0832
     69 H30         0.9716  -13.7058   -6.1146 H         1 <0>         0.0658
     70 H31        -0.5182  -12.7257   -5.9565 H         1 <0>         0.0767
@<TRIPOS>BOND
     1    1    2 1
     2    1   41 1
     3    1   42 1
     4    1   43 1
     5    2   10 1
     6    2    3 2
     7    3    4 1
     8    3   44 1
     9    4    9 ar
    10    4    5 ar
    11    5    6 ar
    12    5   45 1
    13    6    7 ar
    14    6   11 1
    15    7    8 ar
    16    7   46 1
    17    8    9 ar
    18    8   47 1
    19    9   10 1
    20   11   12 1
    21   12   13 2
    22   12   23 1
    23   13   14 1
    24   14   15 2
    25   14   16 1
    26   16   22 ar
    27   16   17 ar
    28   17   18 ar
    29   17   48 1
    30   18   19 ar
    31   18   49 1
    32   19   20 ar
    33   19   50 1
    34   20   21 1
    35   20   22 ar
    36   22   51 1
    37   23   24 1
    38   23   52 1
    39   24   25 1
    40   24   31 1
    41   24   26 1
    42   26   27 1
    43   26   53 1
    44   26   54 1
    45   27   28 1
    46   27   55 1
    47   27   56 1
    48   28   29 1
    49   28   57 1
    50   28   58 1
    51   29   30 1
    52   29   59 1
    53   29   60 1
    54   30   31 am
    55   30   33 1
    56   31   32 2
    57   33   34 1
    58   33   61 1
    59   33   62 1
    60   34   35 2
    61   34   36 am
    62   36   40 1
    63   36   37 1
    64   37   38 1
    65   37   63 1
    66   37   64 1
    67   38   39 1
    68   38   65 1
    69   38   66 1
    70   39   40 1
    71   39   67 1
    72   39   68 1
    73   40   69 1
    74   40   70 1
@<TRIPOS>MOLECULE
CHEMBL565383
   70    74     0     0     0
SMALL
USER_CHARGES

@<TRIPOS>ATOM
      1 C1         -8.0383   -4.3379    1.7926 C.3       1 <0>        -0.0737
      2 C2         -6.6154   -4.7885    1.5846 C.2       1 <0>         0.0167
      3 C3         -5.7975   -4.3293    0.6277 C.2       1 <0>        -0.2203
      4 C4         -4.5250   -5.0405    0.8008 C.ar      1 <0>        -0.0845
      5 C5         -3.2985   -5.0156    0.1389 C.ar      1 <0>        -0.1493
      6 C6         -2.2739   -5.8390    0.5700 C.ar      1 <0>         0.1994
      7 C7         -2.4691   -6.6869    1.6584 C.ar      1 <0>        -0.1922
      8 C8         -3.6785   -6.7163    2.3167 C.ar      1 <0>        -0.0736
      9 C9         -4.7189   -5.8959    1.8980 C.ar      1 <0>        -0.0336
     10 O1         -5.9809   -5.7053    2.3357 O.3       1 <0>        -0.2052
     11 N1         -1.0381   -5.8207   -0.0890 N.2       1 <0>        -0.6542
     12 C10        -0.2039   -6.8976   -0.0050 C.2       1 <0>         0.6506
     13 N2          1.1047   -6.7159    0.0900 N.2       1 <0>        -0.7133
     14 C11         1.6017   -5.4783    0.2140 C.2       1 <0>         0.5146
     15 O2          0.8563   -4.5156    0.1732 O.2       1 <0>        -0.5253
     16 C12         3.0576   -5.2801    0.4007 C.ar      1 <0>        -0.0806
     17 C13         3.9374   -6.3661    0.3335 C.ar      1 <0>        -0.0324
     18 C14         5.2886   -6.1286    0.5142 C.ar      1 <0>        -0.1401
     19 C15         5.7230   -4.8374    0.7535 C.ar      1 <0>         0.0672
     20 N3          4.8697   -3.8316    0.8120 N.ar      1 <0>        -0.1212
     21 O3          5.3600   -2.5265    1.0598 O.3       1 <0>        -0.5666
     22 C16         3.5745   -4.0077    0.6405 C.ar      1 <0>         0.1067
     23 N4         -0.7178   -8.1611   -0.0188 N.pl3     1 <0>        -0.7091
     24 C17         0.1776   -9.3171    0.0713 C.3       1 <0>         0.1530
     25 H1          1.0198   -9.0782    0.7207 H         1 <0>         0.1125
     26 C18        -0.5858  -10.5159    0.6394 C.3       1 <0>        -0.1252
     27 C19         0.3667  -11.4960    1.2999 C.3       1 <0>        -0.1119
     28 C20         1.3110  -12.1815    0.3294 C.3       1 <0>        -0.1515
     29 C21         2.2971  -11.1785   -0.2723 C.3       1 <0>         0.1138
     30 N5          1.6755  -10.5571   -1.4530 N.am      1 <0>        -0.5965
     31 C22         0.6855   -9.6762   -1.3092 C.2       1 <0>         0.5184
     32 O4          0.1864   -9.1643   -2.2889 O.2       1 <0>        -0.5286
     33 C23         2.1515  -10.9052   -2.7941 C.3       1 <0>         0.1018
     34 C24         1.3701  -12.0841   -3.3142 C.2       1 <0>         0.5146
     35 O5          0.5011  -12.5844   -2.6319 O.2       1 <0>        -0.5242
     36 N6          1.6369  -12.5826   -4.5377 N.am      1 <0>        -0.6235
     37 C25         2.6627  -12.0794   -5.4629 C.3       1 <0>         0.0964
     38 C26         2.5864  -12.9385   -6.7427 C.3       1 <0>        -0.1314
     39 C27         1.1454  -13.5114   -6.6913 C.3       1 <0>        -0.1349
     40 C28         0.9528  -13.7268   -5.1672 C.3       1 <0>         0.1059
     41 H2         -8.4674   -4.8697    2.6418 H         1 <0>         0.0724
     42 H3         -8.0548   -3.2659    1.9893 H         1 <0>         0.0821
     43 H4         -8.6219   -4.5521    0.8973 H         1 <0>         0.0819
     44 H5         -6.0283   -3.5859   -0.1209 H         1 <0>         0.1450
     45 H6         -3.1492   -4.3582   -0.7049 H         1 <0>         0.1131
     46 H7         -1.6646   -7.3273    1.9886 H         1 <0>         0.1190
     47 H8         -3.8185   -7.3778    3.1588 H         1 <0>         0.1111
     48 H9          3.5711   -7.3646    0.1456 H         1 <0>         0.1618
     49 H10         5.9965   -6.9430    0.4694 H         1 <0>         0.1602
     50 H11         6.7770   -4.6490    0.8950 H         1 <0>         0.1760
     51 H12         2.9077   -3.1596    0.6906 H         1 <0>         0.1863
     52 H13        -1.6761   -8.2942   -0.0884 H         1 <0>         0.4017
     53 H14        -1.3079  -10.1650    1.3767 H         1 <0>         0.0802
     54 H15        -1.1156  -11.0199   -0.1690 H         1 <0>         0.0689
     55 H16         0.9589  -10.9596    2.0414 H         1 <0>         0.0640
     56 H17        -0.2192  -12.2588    1.8127 H         1 <0>         0.0650
     57 H18         1.8660  -12.9573    0.8568 H         1 <0>         0.0691
     58 H19         0.7311  -12.6388   -0.4723 H         1 <0>         0.0927
     59 H20         2.5324  -10.4101    0.4641 H         1 <0>         0.0824
     60 H21         3.2096  -11.6957   -0.5690 H         1 <0>         0.0791
     61 H22         2.0125  -10.0544   -3.4612 H         1 <0>         0.1117
     62 H23         3.2097  -11.1622   -2.7487 H         1 <0>         0.1025
     63 H24         2.4636  -11.0354   -5.7048 H         1 <0>         0.0717
     64 H25         3.6495  -12.1756   -5.0102 H         1 <0>         0.0699
     65 H26         2.7246  -12.3211   -7.6303 H         1 <0>         0.0832
     66 H27         3.3222  -13.7421   -6.7122 H         1 <0>         0.0767
     67 H28         0.4250  -12.7926   -7.0818 H         1 <0>         0.0771
     68 H29         1.0817  -14.4574   -7.2290 H         1 <0>         0.0835
     69 H30         1.4130  -14.6636   -4.8530 H         1 <0>         0.0661
     70 H31        -0.1075  -13.7206   -4.9146 H         1 <0>         0.0769
@<TRIPOS>BOND
     1    1    2 1
     2    1   41 1
     3    1   42 1
     4    1   43 1
     5    2   10 1
     6    2    3 2
     7    3    4 1
     8    3   44 1
     9    4    9 ar
    10    4    5 ar
    11    5    6 ar
    12    5   45 1
    13    6    7 ar
    14    6   11 1
    15    7    8 ar
    16    7   46 1
    17    8    9 ar
    18    8   47 1
    19    9   10 1
    20   11   12 1
    21   12   13 2
    22   12   23 1
    23   13   14 1
    24   14   15 2
    25   14   16 1
    26   16   22 ar
    27   16   17 ar
    28   17   18 ar
    29   17   48 1
    30   18   19 ar
    31   18   49 1
    32   19   20 ar
    33   19   50 1
    34   20   21 1
    35   20   22 ar
    36   22   51 1
    37   23   24 1
    38   23   52 1
    39   24   25 1
    40   24   31 1
    41   24   26 1
    42   26   27 1
    43   26   53 1
    44   26   54 1
    45   27   28 1
    46   27   55 1
    47   27   56 1
    48   28   29 1
    49   28   57 1
    50   28   58 1
    51   29   30 1
    52   29   59 1
    53   29   60 1
    54   30   31 am
    55   30   33 1
    56   31   32 2
    57   33   34 1
    58   33   61 1
    59   33   62 1
    60   34   35 2
    61   34   36 am
    62   36   40 1
    63   36   37 1
    64   37   38 1
    65   37   63 1
    66   37   64 1
    67   38   39 1
    68   38   65 1
    69   38   66 1
    70   39   40 1
    71   39   67 1
    72   39   68 1
    73   40   69 1
    74   40   70 1
@<TRIPOS>MOLECULE
CHEMBL565383
   70    74     0     0     0
SMALL
USER_CHARGES

@<TRIPOS>ATOM
      1 C1          6.1929   -1.4017    0.5412 C.3       1 <0>        -0.0766
      2 C2          5.0401   -2.3659    0.6520 C.2       1 <0>         0.0205
      3 C3          5.0337   -3.6133    0.1626 C.2       1 <0>        -0.2139
      4 C4          3.7211   -4.1782    0.4988 C.ar      1 <0>        -0.1075
      5 C5          3.1051   -5.4086    0.2754 C.ar      1 <0>        -0.1371
      6 C6          1.8192   -5.6217    0.7386 C.ar      1 <0>         0.1926
      7 C7          1.1462   -4.6118    1.4232 C.ar      1 <0>        -0.0745
      8 C8          1.7492   -3.3939    1.6473 C.ar      1 <0>        -0.0978
      9 C9          3.0405   -3.1620    1.1897 C.ar      1 <0>         0.0176
     10 O1          3.8712   -2.1012    1.2610 O.3       1 <0>        -0.1989
     11 N1          1.1924   -6.8548    0.5187 N.pl3     1 <0>        -0.6810
     12 C10        -0.1548   -6.9072    0.3066 C.2       1 <0>         0.6038
     13 N2         -0.8543   -5.7865    0.2109 N.2       1 <0>        -0.7103
     14 C11        -2.1889   -5.8367    0.1086 C.2       1 <0>         0.5092
     15 O2         -2.7664   -6.9059    0.1929 O.2       1 <0>        -0.5422
     16 C12        -2.9624   -4.5922   -0.1070 C.ar      1 <0>        -0.0750
     17 C13        -2.3102   -3.3586   -0.2114 C.ar      1 <0>        -0.0347
     18 C14        -3.0778   -2.2251   -0.4132 C.ar      1 <0>        -0.1403
     19 C15        -4.4527   -2.3458   -0.5045 C.ar      1 <0>         0.0631
     20 N3         -5.0412   -3.5232   -0.4019 N.ar      1 <0>        -0.1212
     21 O3         -6.4517   -3.5986   -0.5012 O.3       1 <0>        -0.5714
     22 C16        -4.3519   -4.6313   -0.2152 C.ar      1 <0>         0.1031
     23 N4         -0.7810   -8.1139    0.1932 N.2       1 <0>        -0.6268
     24 C17         0.0099   -9.3432    0.0961 C.3       1 <0>         0.0897
     25 H1          0.6965   -9.4046    0.9404 H         1 <0>         0.0335
     26 C18        -0.9230  -10.5567    0.1026 C.3       1 <0>        -0.0846
     27 C19        -0.1951  -11.7917    0.6018 C.3       1 <0>        -0.1153
     28 C20         0.9054  -12.2715   -0.3267 C.3       1 <0>        -0.1486
     29 C21         2.0523  -11.2604   -0.3812 C.3       1 <0>         0.1187
     30 N5          1.7442  -10.2537   -1.4098 N.am      1 <0>        -0.6042
     31 C22         0.7947   -9.3424   -1.1989 C.2       1 <0>         0.4995
     32 O4          0.5551   -8.5125   -2.0502 O.2       1 <0>        -0.5225
     33 C23         2.4897  -10.2501   -2.6710 C.3       1 <0>         0.1003
     34 C24         1.7842  -11.1260   -3.6740 C.2       1 <0>         0.5132
     35 O5          0.7596  -11.6970   -3.3658 O.2       1 <0>        -0.5187
     36 N6          2.2919  -11.2748   -4.9136 N.am      1 <0>        -0.6249
     37 C25         3.5237  -10.6489   -5.4159 C.3       1 <0>         0.0976
     38 C26         3.6913  -11.0831   -6.8872 C.3       1 <0>        -0.1309
     39 C27         2.2475  -11.4721   -7.3014 C.3       1 <0>        -0.1345
     40 C28         1.7074  -12.0974   -5.9884 C.3       1 <0>         0.1055
     41 H2          5.9298   -0.4632    1.0293 H         1 <0>         0.0754
     42 H3          7.0715   -1.8288    1.0247 H         1 <0>         0.0841
     43 H4          6.4112   -1.2156   -0.5103 H         1 <0>         0.0846
     44 H5          5.8332   -4.1041   -0.3723 H         1 <0>         0.1484
     45 H6          3.6281   -6.1899   -0.2561 H         1 <0>         0.1154
     46 H7          0.1422   -4.7855    1.7812 H         1 <0>         0.1575
     47 H8          1.2177   -2.6184    2.1788 H         1 <0>         0.1263
     48 H9          1.7158   -7.6715    0.5172 H         1 <0>         0.3942
     49 H10        -1.2348   -3.2928   -0.1360 H         1 <0>         0.1644
     50 H11        -2.6083   -1.2562   -0.4981 H         1 <0>         0.1587
     51 H12        -5.0544   -1.4629   -0.6620 H         1 <0>         0.1740
     52 H13        -4.8682   -5.5770   -0.1411 H         1 <0>         0.1851
     53 H14        -1.7725  -10.3528    0.7545 H         1 <0>         0.0781
     54 H15        -1.2838  -10.7375   -0.9099 H         1 <0>         0.0570
     55 H16         0.2431  -11.5680    1.5744 H         1 <0>         0.0544
     56 H17        -0.9201  -12.5960    0.7269 H         1 <0>         0.0580
     57 H18         1.2868  -13.2270    0.0333 H         1 <0>         0.0631
     58 H19         0.4968  -12.4042   -1.3285 H         1 <0>         0.0911
     59 H20         2.1564  -10.7729    0.5882 H         1 <0>         0.0746
     60 H21         2.9797  -11.7728   -0.6370 H         1 <0>         0.0746
     61 H22         2.5483   -9.2319   -3.0555 H         1 <0>         0.1084
     62 H23         3.4960  -10.6322   -2.4993 H         1 <0>         0.0982
     63 H24         3.4387   -9.5638   -5.3570 H         1 <0>         0.0702
     64 H25         4.3777  -10.9882   -4.8296 H         1 <0>         0.0682
     65 H26         4.0568  -10.2551   -7.4945 H         1 <0>         0.0826
     66 H27         4.3586  -11.9418   -6.9623 H         1 <0>         0.0762
     67 H28         1.6715  -10.5911   -7.5843 H         1 <0>         0.0771
     68 H29         2.2565  -12.2064   -8.1069 H         1 <0>         0.0832
     69 H30         2.0359  -13.1325   -5.8953 H         1 <0>         0.0654
     70 H31         0.6192  -12.0399   -5.9610 H         1 <0>         0.0770
@<TRIPOS>BOND
     1    1    2 1
     2    1   41 1
     3    1   42 1
     4    1   43 1
     5    2   10 1
     6    2    3 2
     7    3    4 1
     8    3   44 1
     9    4    9 ar
    10    4    5 ar
    11    5    6 ar
    12    5   45 1
    13    6    7 ar
    14    6   11 1
    15    7    8 ar
    16    7   46 1
    17    8    9 ar
    18    8   47 1
    19    9   10 1
    20   11   12 1
    21   11   48 1
    22   12   13 2
    23   12   23 1
    24   13   14 1
    25   14   15 2
    26   14   16 1
    27   16   22 ar
    28   16   17 ar
    29   17   18 ar
    30   17   49 1
    31   18   19 ar
    32   18   50 1
    33   19   20 ar
    34   19   51 1
    35   20   21 1
    36   20   22 ar
    37   22   52 1
    38   23   24 1
    39   24   25 1
    40   24   31 1
    41   24   26 1
    42   26   27 1
    43   26   53 1
    44   26   54 1
    45   27   28 1
    46   27   55 1
    47   27   56 1
    48   28   29 1
    49   28   57 1
    50   28   58 1
    51   29   30 1
    52   29   59 1
    53   29   60 1
    54   30   31 am
    55   30   33 1
    56   31   32 2
    57   33   34 1
    58   33   61 1
    59   33   62 1
    60   34   35 2
    61   34   36 am
    62   36   40 1
    63   36   37 1
    64   37   38 1
    65   37   63 1
    66   37   64 1
    67   38   39 1
    68   38   65 1
    69   38   66 1
    70   39   40 1
    71   39   67 1
    72   39   68 1
    73   40   69 1
    74   40   70 1
@<TRIPOS>MOLECULE
CHEMBL498662
   36    39     0     0     0
SMALL
USER_CHARGES

@<TRIPOS>ATOM
      1 C1         -0.0168    1.3898    0.0097 C.ar      1 <0>        -0.0813
      2 C2          1.1697    2.0937    0.0021 C.ar      1 <0>        -0.1495
      3 C3          2.3788    1.4173   -0.0130 C.ar      1 <0>         0.1001
      4 C4          2.4025    0.0319   -0.0207 C.ar      1 <0>        -0.1496
      5 C5          1.2210   -0.6803   -0.0137 C.ar      1 <0>        -0.0817
      6 C6          0.0021   -0.0041    0.0020 C.ar      1 <0>        -0.0546
      7 C7         -1.2706   -0.7651    0.0106 C.ar      1 <0>        -0.0394
      8 C8         -2.4902   -0.0882    0.0205 C.ar      1 <0>        -0.1081
      9 C9         -3.6729   -0.7921    0.0280 C.ar      1 <0>        -0.0912
     10 C10        -3.6566   -2.1895    0.0261 C.ar      1 <0>        -0.0579
     11 C11        -2.4331   -2.8612    0.0162 C.ar      1 <0>        -0.0953
     12 C12        -1.2514   -2.1606    0.0029 C.ar      1 <0>        -0.0893
     13 C13        -2.7521   -4.3366    0.0167 C.3       1 <0>        -0.0671
     14 C14        -4.2599   -4.4273    0.0278 C.2       1 <0>        -0.1222
     15 C15        -4.7506   -3.1854    0.0330 C.2       1 <0>        -0.0675
     16 C16        -6.1949   -2.8503    0.0450 C.ar      1 <0>         0.0079
     17 C17        -6.7897   -2.1974   -1.0390 C.ar      1 <0>        -0.1597
     18 C18        -8.1368   -1.9044   -0.9864 C.ar      1 <0>         0.1016
     19 N1         -8.8605   -2.2314    0.0672 N.ar      1 <0>        -0.4859
     20 C19        -8.3384   -2.8478    1.1103 C.ar      1 <0>         0.1019
     21 C20        -7.0006   -3.1837    1.1380 C.ar      1 <0>        -0.1604
     22 F1          3.5383    2.1106   -0.0208 F         1 <0>        -0.1375
     23 H1         -0.9588    1.9178    0.0260 H         1 <0>         0.1367
     24 H2          1.1560    3.1736    0.0077 H         1 <0>         0.1391
     25 H3          3.3473   -0.4912   -0.0325 H         1 <0>         0.1391
     26 H4          1.2403   -1.7601   -0.0201 H         1 <0>         0.1365
     27 H5         -2.5064    0.9917    0.0227 H         1 <0>         0.1299
     28 H6         -4.6149   -0.2637    0.0356 H         1 <0>         0.1234
     29 H7         -0.3094   -2.6887   -0.0089 H         1 <0>         0.1287
     30 H8         -2.3530   -4.8085   -0.8811 H         1 <0>         0.1073
     31 H9         -2.3397   -4.8107    0.9073 H         1 <0>         0.1078
     32 H10        -4.8401   -5.3382    0.0303 H         1 <0>         0.1500
     33 H11        -6.2032   -1.9262   -1.9043 H         1 <0>         0.1355
     34 H12        -8.6053   -1.4003   -1.8188 H         1 <0>         0.1581
     35 H13        -8.9678   -3.0968    1.9519 H         1 <0>         0.1583
     36 H14        -6.5808   -3.6924    1.9932 H         1 <0>         0.1362
@<TRIPOS>BOND
     1    1    6 ar
     2    1    2 ar
     3    1   23 1
     4    2    3 ar
     5    2   24 1
     6    3    4 ar
     7    3   22 1
     8    4    5 ar
     9    4   25 1
    10    5    6 ar
    11    5   26 1
    12    6    7 1
    13    7   12 ar
    14    7    8 ar
    15    8    9 ar
    16    8   27 1
    17    9   10 ar
    18    9   28 1
    19   10   15 1
    20   10   11 ar
    21   11   12 ar
    22   11   13 1
    23   12   29 1
    24   13   14 1
    25   13   30 1
    26   13   31 1
    27   14   15 2
    28   14   32 1
    29   15   16 1
    30   16   21 ar
    31   16   17 ar
    32   17   18 ar
    33   17   33 1
    34   18   19 ar
    35   18   34 1
    36   19   20 ar
    37   20   21 ar
    38   20   35 1
    39   21   36 1
@<TRIPOS>MOLECULE
CHEMBL1097507
   55    59     0     0     0
SMALL
USER_CHARGES

@<TRIPOS>ATOM
      1 C1         -0.0184    1.5028    0.0103 C.3       1 <0>        -0.1153
      2 C2          0.0021   -0.0041    0.0020 C.ar      1 <0>        -0.0292
      3 C3          0.0058   -0.6869   -1.2004 C.ar      1 <0>        -0.1504
      4 C4          0.0250   -2.0715   -1.2161 C.ar      1 <0>         0.1206
      5 C5          0.0407   -2.7786   -0.0079 C.ar      1 <0>        -0.0516
      6 C6          0.0367   -2.0789    1.1926 C.ar      1 <0>        -0.0540
      7 C7          0.0229   -0.7007    1.1981 C.ar      1 <0>        -0.0907
      8 C8          0.0246    0.0478    2.5062 C.3       1 <0>        -0.1117
      9 C9          0.0564   -3.1061    2.2995 C.3       1 <0>         0.0171
     10 C10         0.0715   -4.4317    1.6129 C.2       1 <0>        -0.2415
     11 C11         0.0624   -4.2504    0.2580 C.2       1 <0>         0.0978
     12 N1          0.0745   -5.3936   -0.4504 N.2       1 <0>        -0.5000
     13 C12         0.0933   -6.5652    0.1206 C.2       1 <0>         0.0340
     14 S1          0.0964   -6.1983    1.7636 S.3       1 <0>         0.1641
     15 O1          0.0281   -2.7407   -2.3987 O.3       1 <0>        -0.2640
     16 C13         0.0109   -1.9522   -3.5904 C.3       1 <0>        -0.5381
     17 P1          1.6597   -1.2228   -3.8603 P.3       1 <0>         2.3074
     18 O2          2.0489   -0.3967   -2.6956 O.2       1 <0>        -0.9646
     19 O3          2.7569   -2.3946   -4.1124 O.3       1 <0>        -0.7118
     20 C14         3.9764   -2.0711   -4.8060 C.3       1 <0>         0.0927
     21 C15         3.6309   -1.3823   -6.1268 C.3       1 <0>        -0.2211
     22 C16         2.9106   -0.0572   -5.8746 C.3       1 <0>         0.1718
     23 H1          3.5298    0.5801   -5.2434 H         1 <0>         0.1033
     24 O4          1.6598   -0.3215   -5.2125 O.3       1 <0>        -0.7163
     25 C17         2.6514    0.6338   -7.1886 C.ar      1 <0>        -0.0534
     26 C18         1.5229    0.3196   -7.9235 C.ar      1 <0>        -0.1283
     27 C19         1.2823    0.9517   -9.1293 C.ar      1 <0>        -0.0808
     28 C20         2.1695    1.8989   -9.6031 C.ar      1 <0>        -0.2006
     29 C21         3.3022    2.2158   -8.8678 C.ar      1 <0>         0.1293
     30 C22         3.5382    1.5844   -7.6550 C.ar      1 <0>        -0.1389
     31 O5          4.1763    3.1472   -9.3318 O.3       1 <0>        -0.3158
     32 C23         3.8663    3.7607  -10.5846 C.3       1 <0>         0.0263
     33 H2          1.0042    1.8801    0.0026 H         1 <0>         0.0835
     34 H3         -0.5455    1.8639   -0.8728 H         1 <0>         0.0666
     35 H4         -0.5286    1.8543    0.9071 H         1 <0>         0.0709
     36 H5         -0.0068   -0.1384   -2.1307 H         1 <0>         0.1287
     37 H6         -1.0024    0.2139    2.8311 H         1 <0>         0.0707
     38 H7          0.5537   -0.5370    3.2587 H         1 <0>         0.0672
     39 H8          0.5240    1.0078    2.3748 H         1 <0>         0.0731
     40 H9          0.9522   -2.9868    2.9089 H         1 <0>         0.1125
     41 H10        -0.8364   -3.0117    2.9176 H         1 <0>         0.1109
     42 H11         0.1037   -7.5382   -0.3480 H         1 <0>         0.2230
     43 H12        -0.2508   -2.5831   -4.4398 H         1 <0>         0.1319
     44 H13        -0.7264   -1.1559   -3.4885 H         1 <0>         0.1127
     45 H14         4.5784   -1.4013   -4.1920 H         1 <0>         0.0837
     46 H15         4.5353   -2.9851   -5.0067 H         1 <0>         0.1183
     47 H16         4.5487   -1.1916   -6.6829 H         1 <0>         0.1233
     48 H17         2.9854   -2.0355   -6.7140 H         1 <0>         0.0978
     49 H18         0.8286   -0.4211   -7.5552 H         1 <0>         0.1271
     50 H19         0.4003    0.7045   -9.7014 H         1 <0>         0.1284
     51 H20         1.9815    2.3919  -10.5455 H         1 <0>         0.1306
     52 H21         4.4169    1.8329   -7.0783 H         1 <0>         0.1370
     53 H22         3.8135    2.9966  -11.3601 H         1 <0>         0.0566
     54 H23         2.9059    4.2711  -10.5115 H         1 <0>         0.0569
     55 H24         4.6429    4.4824  -10.8378 H         1 <0>         0.1028
@<TRIPOS>BOND
     1    1    2 1
     2    1   33 1
     3    1   34 1
     4    1   35 1
     5    2    7 ar
     6    2    3 ar
     7    3    4 ar
     8    3   36 1
     9    4    5 ar
    10    4   15 1
    11    5   11 1
    12    5    6 ar
    13    6    7 ar
    14    6    9 1
    15    7    8 1
    16    8   37 1
    17    8   38 1
    18    8   39 1
    19    9   10 1
    20    9   40 1
    21    9   41 1
    22   10   14 1
    23   10   11 2
    24   11   12 1
    25   12   13 2
    26   13   14 1
    27   13   42 1
    28   15   16 1
    29   16   17 1
    30   16   43 1
    31   16   44 1
    32   17   24 1
    33   17   18 2
    34   17   19 1
    35   19   20 1
    36   20   21 1
    37   20   45 1
    38   20   46 1
    39   21   22 1
    40   21   47 1
    41   21   48 1
    42   22   23 1
    43   22   24 1
    44   22   25 1
    45   25   30 ar
    46   25   26 ar
    47   26   27 ar
    48   26   49 1
    49   27   28 ar
    50   27   50 1
    51   28   29 ar
    52   28   51 1
    53   29   30 ar
    54   29   31 1
    55   30   52 1
    56   31   32 1
    57   32   53 1
    58   32   54 1
    59   32   55 1
@<TRIPOS>MOLECULE
CHEMBL230080
   71    76     0     0     0
SMALL
USER_CHARGES

@<TRIPOS>ATOM
      1 C1          2.4503    1.6858    3.8712 C.3       1 <0>         0.0245
      2 O1          2.4799    0.2672    4.0401 O.3       1 <0>        -0.3124
      3 C2          1.9765   -0.4855    3.0267 C.ar      1 <0>         0.1502
      4 C3          1.4698    0.1296    1.8903 C.ar      1 <0>        -0.2064
      5 C4          0.9578   -0.6345    0.8593 C.ar      1 <0>        -0.0569
      6 C5          0.9486   -2.0128    0.9562 C.ar      1 <0>        -0.1677
      7 C6          1.4546   -2.6333    2.0905 C.ar      1 <0>         0.1585
      8 C7          1.9740   -1.8680    3.1248 C.ar      1 <0>        -0.1732
      9 N1          1.4451   -4.0319    2.1887 N.am      1 <0>        -0.5100
     10 C8          2.0144   -4.7252    3.1967 C.2       1 <0>         0.5323
     11 O2          2.6086   -4.2758    4.1531 O.2       1 <0>        -0.4277
     12 C9          1.7545   -6.1798    2.8820 C.3       1 <0>         0.1134
     13 C10         0.9219   -6.8249    3.9856 C.3       1 <0>        -0.1405
     14 C11         0.7145   -8.3072    3.6619 C.3       1 <0>        -0.0334
     15 N2          2.0182   -8.9729    3.5521 N.4       1 <0>        -0.3842
     16 C12         2.7756   -8.4086    2.4285 C.3       1 <0>        -0.0274
     17 C13         3.0700   -6.9305    2.6999 C.3       1 <0>        -0.1388
     18 C14         1.8145  -10.4106    3.3298 C.3       1 <0>         0.0433
     19 C15         3.1472  -11.1142    3.3393 C.ar      1 <0>        -0.1786
     20 C16         3.8576  -11.2623    2.1622 C.ar      1 <0>        -0.0643
     21 C17         5.0793  -11.9067    2.1678 C.ar      1 <0>        -0.1360
     22 C18         5.5941  -12.4054    3.3567 C.ar      1 <0>         0.1876
     23 C19         4.8788  -12.2547    4.5368 C.ar      1 <0>        -0.1342
     24 C20         3.6598  -11.6052    4.5259 C.ar      1 <0>        -0.0572
     25 N3          6.8340  -13.0604    3.3654 N.pl3     1 <0>        -0.4278
     26 C21         7.4601  -13.6055    4.4565 C.2       1 <0>        -0.0571
     27 C22         8.6202  -14.1304    4.0185 C.2       1 <0>        -0.0052
     28 N4          8.7052  -13.9148    2.6974 N.2       1 <0>        -0.4716
     29 C23         7.6387  -13.2800    2.2933 C.2       1 <0>         0.1954
     30 N5          1.0021   -6.1448    1.6220 N.am      1 <0>        -0.6197
     31 C24         0.8653   -4.8448    1.2970 C.2       1 <0>         0.7008
     32 O3          0.2835   -4.4539    0.3041 O.2       1 <0>        -0.4831
     33 C25         0.4961   -7.2956    0.8697 C.3       1 <0>         0.1836
     34 C26        -1.0044   -7.2056    0.7632 C.ar      1 <0>        -0.1804
     35 C27        -1.8032   -7.8605    1.6817 C.ar      1 <0>        -0.0900
     36 C28        -3.1795   -7.7782    1.5842 C.ar      1 <0>        -0.1323
     37 C29        -3.7589   -7.0409    0.5682 C.ar      1 <0>        -0.0665
     38 C30        -2.9624   -6.3850   -0.3509 C.ar      1 <0>        -0.1537
     39 C31        -1.5833   -6.4624   -0.2512 C.ar      1 <0>         0.1514
     40 F1         -0.8035   -5.8177   -1.1464 F         1 <0>        -0.1108
     41 H1          1.4189    2.0154    3.7460 H         1 <0>         0.0597
     42 H2          2.8808    2.1655    4.7503 H         1 <0>         0.1061
     43 H3          3.0286    1.9588    2.9885 H         1 <0>         0.0598
     44 H4          1.4754    1.2068    1.8120 H         1 <0>         0.1368
     45 H5          0.5638   -0.1536   -0.0238 H         1 <0>         0.1382
     46 H6          0.5472   -2.6078    0.1493 H         1 <0>         0.1626
     47 H7          2.3716   -2.3485    4.0065 H         1 <0>         0.1570
     48 H8          1.4437   -6.7299    4.9378 H         1 <0>         0.1214
     49 H9         -0.0459   -6.3275    4.0492 H         1 <0>         0.1275
     50 H10         0.1340   -8.7747    4.4572 H         1 <0>         0.1507
     51 H11         0.1782   -8.4011    2.7177 H         1 <0>         0.1429
     52 H12         3.7143   -8.9508    2.3145 H         1 <0>         0.1479
     53 H13         2.1903   -8.5002    1.5135 H         1 <0>         0.1391
     54 H14         3.6166   -6.5077    1.8570 H         1 <0>         0.1277
     55 H15         3.6695   -6.8393    3.6056 H         1 <0>         0.1203
     56 H16         1.1845  -10.8151    4.1221 H         1 <0>         0.1450
     57 H17         1.3295  -10.5641    2.3658 H         1 <0>         0.1386
     58 H18         3.4566  -10.8741    1.2376 H         1 <0>         0.1427
     59 H19         5.6334  -12.0227    1.2481 H         1 <0>         0.1458
     60 H20         5.2766  -12.6420    5.4632 H         1 <0>         0.1445
     61 H21         3.1048  -11.4841    5.4444 H         1 <0>         0.1432
     62 H22         7.0935  -13.6122    5.4723 H         1 <0>         0.1835
     63 H23         9.3554  -14.6372    4.6261 H         1 <0>         0.1823
     64 H24         7.4320  -12.9776    1.2774 H         1 <0>         0.2132
     65 H25         0.9319   -7.2965   -0.1294 H         1 <0>         0.1049
     66 H26         0.7692   -8.2158    1.3861 H         1 <0>         0.0957
     67 H27        -1.3518   -8.4371    2.4755 H         1 <0>         0.1233
     68 H28        -3.8029   -8.2906    2.3021 H         1 <0>         0.1356
     69 H29        -4.8344   -6.9778    0.4926 H         1 <0>         0.1401
     70 H30        -3.4151   -5.8093   -1.1446 H         1 <0>         0.1431
     71 H31         2.5366   -8.8376    4.4071 H         1 <0>         0.4270
@<TRIPOS>BOND
     1    1    2 1
     2    1   41 1
     3    1   42 1
     4    1   43 1
     5    2    3 1
     6    3    8 ar
     7    3    4 ar
     8    4    5 ar
     9    4   44 1
    10    5    6 ar
    11    5   45 1
    12    6    7 ar
    13    6   46 1
    14    7    8 ar
    15    7    9 1
    16    8   47 1
    17    9   31 am
    18    9   10 am
    19   10   11 2
    20   10   12 1
    21   12   17 1
    22   12   13 1
    23   12   30 1
    24   13   14 1
    25   13   48 1
    26   13   49 1
    27   14   15 1
    28   14   50 1
    29   14   51 1
    30   15   16 1
    31   15   18 1
    32   15   71 1
    33   16   17 1
    34   16   52 1
    35   16   53 1
    36   17   54 1
    37   17   55 1
    38   18   19 1
    39   18   56 1
    40   18   57 1
    41   19   24 ar
    42   19   20 ar
    43   20   21 ar
    44   20   58 1
    45   21   22 ar
    46   21   59 1
    47   22   23 ar
    48   22   25 1
    49   23   24 ar
    50   23   60 1
    51   24   61 1
    52   25   29 1
    53   25   26 1
    54   26   27 2
    55   26   62 1
    56   27   28 1
    57   27   63 1
    58   28   29 2
    59   29   64 1
    60   30   31 am
    61   30   33 1
    62   31   32 2
    63   33   34 1
    64   33   65 1
    65   33   66 1
    66   34   39 ar
    67   34   35 ar
    68   35   36 ar
    69   35   67 1
    70   36   37 ar
    71   36   68 1
    72   37   38 ar
    73   37   69 1
    74   38   39 ar
    75   38   70 1
    76   39   40 1
@<TRIPOS>MOLECULE
CHEMBL230080
   70    75     0     0     0
SMALL
USER_CHARGES

@<TRIPOS>ATOM
      1 C1         -4.5990    1.6111    0.1951 C.3       1 <0>         0.0265
      2 O1         -4.7382    0.1910    0.1178 O.3       1 <0>        -0.3132
      3 C2         -3.5965   -0.5444    0.1691 C.ar      1 <0>         0.1467
      4 C3         -2.3679    0.0885    0.2972 C.ar      1 <0>        -0.2146
      5 C4         -1.2065   -0.6582    0.3495 C.ar      1 <0>        -0.0604
      6 C5         -1.2645   -2.0367    0.2745 C.ar      1 <0>        -0.1706
      7 C6         -2.4909   -2.6750    0.1468 C.ar      1 <0>         0.1715
      8 C7         -3.6587   -1.9272    0.0994 C.ar      1 <0>        -0.1751
      9 N1         -2.5495   -4.0737    0.0707 N.am      1 <0>        -0.5187
     10 C8         -3.6960   -4.7851    0.0591 C.2       1 <0>         0.5310
     11 O2         -4.8280   -4.3541    0.1105 O.2       1 <0>        -0.4396
     12 C9         -3.2713   -6.2322   -0.0321 C.3       1 <0>         0.1264
     13 C10        -3.8102   -6.8675   -1.3099 C.3       1 <0>        -0.1089
     14 C11        -3.3876   -8.3386   -1.3615 C.3       1 <0>         0.0340
     15 N2         -3.8965   -9.0355   -0.1732 N.3       1 <0>        -0.5309
     16 C12        -3.3285   -8.4737    1.0590 C.3       1 <0>         0.0396
     17 C13        -3.7490   -7.0071    1.1920 C.3       1 <0>        -0.1086
     18 C14        -3.6408  -10.4795   -0.2600 C.3       1 <0>         0.0936
     19 C15        -4.3838  -11.1884    0.8430 C.ar      1 <0>        -0.0866
     20 C16        -3.7763  -11.3830    2.0698 C.ar      1 <0>        -0.0862
     21 C17        -4.4548  -12.0324    3.0827 C.ar      1 <0>        -0.1333
     22 C18        -5.7479  -12.4894    2.8681 C.ar      1 <0>         0.1377
     23 C19        -6.3553  -12.2921    1.6356 C.ar      1 <0>        -0.1317
     24 C20        -5.6737  -11.6378    0.6281 C.ar      1 <0>        -0.0665
     25 N3         -6.4391  -13.1494    3.8943 N.pl3     1 <0>        -0.4130
     26 C21        -7.7109  -13.6568    3.8251 C.2       1 <0>        -0.0538
     27 C22        -7.9788  -14.2029    5.0265 C.2       1 <0>        -0.0203
     28 N4         -6.9039  -14.0365    5.8113 N.2       1 <0>        -0.4836
     29 C23        -5.9729  -13.4120    5.1429 C.2       1 <0>         0.1887
     30 N5         -1.8048   -6.1734   -0.0647 N.am      1 <0>        -0.6079
     31 C24        -1.4752   -4.8687   -0.0053 C.2       1 <0>         0.6990
     32 O3         -0.3308   -4.4595   -0.0163 O.2       1 <0>        -0.5057
     33 C25        -0.8827   -7.3085   -0.1506 C.3       1 <0>         0.1801
     34 C26        -0.0420   -7.1798   -1.3947 C.ar      1 <0>        -0.1660
     35 C27        -0.4281   -7.8169   -2.5590 C.ar      1 <0>        -0.0818
     36 C28         0.3428   -7.6990   -3.7002 C.ar      1 <0>        -0.1385
     37 C29         1.5008   -6.9437   -3.6786 C.ar      1 <0>        -0.0763
     38 C30         1.8885   -6.3056   -2.5160 C.ar      1 <0>        -0.1626
     39 C31         1.1142   -6.4187   -1.3734 C.ar      1 <0>         0.1458
     40 F1          1.4898   -5.7914   -0.2374 F         1 <0>        -0.1144
     41 H1         -5.5835    2.0760    0.1429 H         1 <0>         0.1026
     42 H2         -4.1205    1.8786    1.1372 H         1 <0>         0.0573
     43 H3         -3.9870    1.9620   -0.6358 H         1 <0>         0.0572
     44 H4         -2.3196    1.1658    0.3557 H         1 <0>         0.1323
     45 H5         -0.2517   -0.1635    0.4489 H         1 <0>         0.1341
     46 H6         -0.3552   -2.6181    0.3149 H         1 <0>         0.1637
     47 H7         -4.6142   -2.4216    0.0038 H         1 <0>         0.1584
     48 H8         -4.8982   -6.8011   -1.3184 H         1 <0>         0.1031
     49 H9         -3.4064   -6.3425   -2.1756 H         1 <0>         0.0819
     50 H10        -3.7973   -8.8031   -2.2584 H         1 <0>         0.0923
     51 H11        -2.2998   -8.4037   -1.3829 H         1 <0>         0.0588
     52 H12        -3.6953   -9.0361    1.9176 H         1 <0>         0.0942
     53 H13        -2.2411   -8.5379    1.0201 H         1 <0>         0.0493
     54 H14        -3.3020   -6.5805    2.0899 H         1 <0>         0.0820
     55 H15        -4.8350   -6.9448    1.2609 H         1 <0>         0.1026
     56 H16        -3.9827  -10.8516   -1.2258 H         1 <0>         0.0917
     57 H17        -2.5719  -10.6661   -0.1564 H         1 <0>         0.0489
     58 H18        -2.7702  -11.0273    2.2362 H         1 <0>         0.1309
     59 H19        -3.9796  -12.1848    4.0404 H         1 <0>         0.1322
     60 H20        -7.3612  -12.6469    1.4657 H         1 <0>         0.1317
     61 H21        -6.1472  -11.4804   -0.3297 H         1 <0>         0.1351
     62 H22        -8.3712  -13.6244    2.9711 H         1 <0>         0.1785
     63 H23        -8.9001  -14.6904    5.3093 H         1 <0>         0.1759
     64 H24        -4.9964  -13.1463    5.5201 H         1 <0>         0.2084
     65 H25        -0.2351   -7.3178    0.7261 H         1 <0>         0.0896
     66 H26        -1.4522   -8.2370   -0.1914 H         1 <0>         0.1189
     67 H27        -1.3322   -8.4073   -2.5769 H         1 <0>         0.1353
     68 H28         0.0405   -8.1974   -4.6094 H         1 <0>         0.1312
     69 H29         2.1027   -6.8529   -4.5707 H         1 <0>         0.1336
     70 H30         2.7932   -5.7160   -2.4993 H         1 <0>         0.1366
@<TRIPOS>BOND
     1    1    2 1
     2    1   41 1
     3    1   42 1
     4    1   43 1
     5    2    3 1
     6    3    8 ar
     7    3    4 ar
     8    4    5 ar
     9    4   44 1
    10    5    6 ar
    11    5   45 1
    12    6    7 ar
    13    6   46 1
    14    7    8 ar
    15    7    9 1
    16    8   47 1
    17    9   31 am
    18    9   10 am
    19   10   11 2
    20   10   12 1
    21   12   17 1
    22   12   13 1
    23   12   30 1
    24   13   14 1
    25   13   48 1
    26   13   49 1
    27   14   15 1
    28   14   50 1
    29   14   51 1
    30   15   16 1
    31   15   18 1
    32   16   17 1
    33   16   52 1
    34   16   53 1
    35   17   54 1
    36   17   55 1
    37   18   19 1
    38   18   56 1
    39   18   57 1
    40   19   24 ar
    41   19   20 ar
    42   20   21 ar
    43   20   58 1
    44   21   22 ar
    45   21   59 1
    46   22   23 ar
    47   22   25 1
    48   23   24 ar
    49   23   60 1
    50   24   61 1
    51   25   29 1
    52   25   26 1
    53   26   27 2
    54   26   62 1
    55   27   28 1
    56   27   63 1
    57   28   29 2
    58   29   64 1
    59   30   31 am
    60   30   33 1
    61   31   32 2
    62   33   34 1
    63   33   65 1
    64   33   66 1
    65   34   39 ar
    66   34   35 ar
    67   35   36 ar
    68   35   67 1
    69   36   37 ar
    70   36   68 1
    71   37   38 ar
    72   37   69 1
    73   38   39 ar
    74   38   70 1
    75   39   40 1
@<TRIPOS>MOLECULE
CHEMBL217716
   46    49     0     0     0
SMALL
USER_CHARGES

@<TRIPOS>ATOM
      1 C1         -0.0167    1.3779    0.0096 C.ar      1 <0>        -0.0751
      2 C2          1.1696    2.0885    0.0021 C.ar      1 <0>        -0.1026
      3 C3          2.3803    1.4160   -0.0135 C.ar      1 <0>         0.0766
      4 C4          2.3992    0.0230   -0.0212 C.ar      1 <0>         0.0393
      5 C5          1.2071   -0.6821   -0.0137 C.ar      1 <0>        -0.0786
      6 C6          0.0021   -0.0041    0.0020 C.ar      1 <0>        -0.1656
      7 C7         -1.2936   -0.7736    0.0102 C.3       1 <0>         0.0553
      8 N1         -1.7278   -1.0162   -1.3720 N.4       1 <0>        -0.5065
      9 C8         -2.9908   -1.7664   -1.3640 C.3       1 <0>        -0.0255
     10 C9         -3.4430   -2.0191   -2.8036 C.3       1 <0>         0.1191
     11 N2         -4.7026   -2.7672   -2.7956 N.pl3     1 <0>        -0.3852
     12 C10        -5.8458   -2.4005   -3.4148 C.2       1 <0>         0.0700
     13 C11        -6.7755   -3.3489   -3.1721 C.2       1 <0>        -0.2391
     14 C12        -6.1791   -4.3431   -2.3685 C.2       1 <0>         0.1733
     15 N3         -4.9280   -3.9894   -2.1497 N.2       1 <0>        -0.2749
     16 C13        -6.8382   -5.5667   -1.8657 C.2       1 <0>        -0.0833
     17 C14        -6.3139   -6.5743   -1.0723 C.2       1 <0>        -0.1255
     18 C15        -7.1177   -7.6234   -0.7250 C.2       1 <0>        -0.0703
     19 C16        -8.4280   -7.6381   -1.1811 C.2       1 <0>        -0.2055
     20 S1         -8.5162   -6.1212   -2.1184 S.3       1 <0>         0.1528
     21 C17        -9.4718   -8.6385   -0.9492 C.2       1 <0>         0.6151
     22 O1         -9.2329   -9.6218   -0.2726 O.2       1 <0>        -0.4948
     23 N4        -10.6971   -8.4706   -1.4849 N.am      1 <0>        -0.5900
     24 O2        -11.7065   -9.4381   -1.2607 O.3       1 <0>        -0.3026
     25 O3          3.6984   -0.3954   -0.0364 O.3       1 <0>        -0.2999
     26 C18         4.4664    0.7501   -0.4501 C.3       1 <0>         0.2109
     27 O4          3.6676    1.8697   -0.0238 O.3       1 <0>        -0.2972
     28 H1         -0.9598    1.9039    0.0259 H         1 <0>         0.1482
     29 H2          1.1520    3.1683    0.0081 H         1 <0>         0.1506
     30 H3          1.2188   -1.7620   -0.0196 H         1 <0>         0.1454
     31 H4         -1.1467   -1.7271    0.5176 H         1 <0>         0.1432
     32 H5         -2.0555   -0.1967    0.5345 H         1 <0>         0.1446
     33 H6         -1.8638   -0.1336   -1.8416 H         1 <0>         0.4292
     34 H7         -2.8439   -2.7199   -0.8566 H         1 <0>         0.1476
     35 H8         -3.7527   -1.1895   -0.8398 H         1 <0>         0.1407
     36 H9         -3.5900   -1.0656   -3.3110 H         1 <0>         0.1204
     37 H10        -2.6811   -2.5960   -3.3278 H         1 <0>         0.1078
     38 H11        -5.9909   -1.5051   -4.0011 H         1 <0>         0.1876
     39 H12        -7.7947   -3.3466   -3.5292 H         1 <0>         0.1617
     40 H13        -5.2889   -6.5315   -0.7348 H         1 <0>         0.1500
     41 H14        -6.7404   -8.4255   -0.1081 H         1 <0>         0.1567
     42 H15       -10.8875   -7.6871   -2.0241 H         1 <0>         0.4074
     43 H16       -12.5506   -9.2313   -1.6847 H         1 <0>         0.3948
     44 H17         5.4365    0.7605    0.0468 H         1 <0>         0.1452
     45 H18         4.5896    0.7578   -1.5331 H         1 <0>         0.0974
     46 H19        -1.0225   -1.5503   -1.8573 H         1 <0>         0.4311
@<TRIPOS>BOND
     1    1    6 ar
     2    1    2 ar
     3    1   28 1
     4    2    3 ar
     5    2   29 1
     6    3   27 1
     7    3    4 ar
     8    4    5 ar
     9    4   25 1
    10    5    6 ar
    11    5   30 1
    12    6    7 1
    13    7    8 1
    14    7   31 1
    15    7   32 1
    16    8    9 1
    17    8   33 1
    18    8   46 1
    19    9   10 1
    20    9   34 1
    21    9   35 1
    22   10   11 1
    23   10   36 1
    24   10   37 1
    25   11   15 1
    26   11   12 1
    27   12   13 2
    28   12   38 1
    29   13   14 1
    30   13   39 1
    31   14   15 2
    32   14   16 1
    33   16   20 1
    34   16   17 2
    35   17   18 1
    36   17   40 1
    37   18   19 2
    38   18   41 1
    39   19   20 1
    40   19   21 1
    41   21   22 2
    42   21   23 am
    43   23   24 1
    44   23   42 1
    45   24   43 1
    46   25   26 1
    47   26   27 1
    48   26   44 1
    49   26   45 1
@<TRIPOS>MOLECULE
CHEMBL393363
   66    69     0     0     0
SMALL
USER_CHARGES

@<TRIPOS>ATOM
      1 C1         -0.1706   -1.6921    0.8828 C.3       1 <0>        -0.1527
      2 C2         -0.0179   -0.3868    0.0994 C.3       1 <0>        -0.1066
      3 C3          0.8044   -0.6371   -1.1385 C.ar      1 <0>         0.2548
      4 C4          2.1957   -0.5983   -1.0811 C.ar      1 <0>        -0.1871
      5 C5          2.9180   -0.8388   -2.2645 C.ar      1 <0>         0.5398
      6 N1          2.2496   -1.0919   -3.3838 N.ar      1 <0>        -0.5741
      7 C6          0.9252   -1.1185   -3.3903 C.ar      1 <0>         0.6662
      8 N2          0.2143   -0.9020   -2.2930 N.ar      1 <0>        -0.5691
      9 N3          0.2648   -1.3859   -4.5764 N.pl3     1 <0>        -0.7906
     10 N4          4.3015   -0.8115   -2.2622 N.pl3     1 <0>        -0.7719
     11 C7          2.8971   -0.3107    0.1934 C.ar      1 <0>        -0.0583
     12 C8          2.8208    0.9605    0.7606 C.ar      1 <0>        -0.0842
     13 C9          3.4784    1.2316    1.9439 C.ar      1 <0>        -0.0952
     14 C10         4.2136    0.2396    2.5726 C.ar      1 <0>         0.1065
     15 C11         4.2846   -1.0366    2.0156 C.ar      1 <0>         0.1122
     16 C12         3.6289   -1.3127    0.8288 C.ar      1 <0>        -0.1148
     17 N5          5.0033   -2.0404    2.6798 N.am      1 <0>        -0.5456
     18 C13         5.4274   -1.8218    3.9420 C.2       1 <0>         0.5038
     19 O1          6.1424   -2.6321    4.4930 O.2       1 <0>        -0.4741
     20 C14         5.0095   -0.5662    4.6646 C.3       1 <0>         0.1594
     21 O2          4.8787    0.5064    3.7292 O.3       1 <0>        -0.2837
     22 C15         6.0667   -0.2043    5.7097 C.3       1 <0>        -0.1336
     23 C16         3.6873   -0.7983    5.3495 C.ar      1 <0>        -0.1262
     24 C17         3.3542   -2.0625    5.7991 C.ar      1 <0>        -0.0731
     25 C18         2.1416   -2.2754    6.4272 C.ar      1 <0>        -0.1112
     26 C19         1.2620   -1.2239    6.6065 C.ar      1 <0>        -0.0574
     27 C20         1.5954    0.0402    6.1579 C.ar      1 <0>        -0.1787
     28 C21         2.8102    0.2540    5.5334 C.ar      1 <0>        -0.0392
     29 C22         0.6364    1.1862    6.3529 C.3       1 <0>         0.5095
     30 F1         -0.5124    0.7270    7.0061 F         1 <0>        -0.1733
     31 F2          1.2473    2.1790    7.1265 F         1 <0>        -0.1712
     32 F3          0.2840    1.7165    5.1072 F         1 <0>        -0.1768
     33 C23         5.2901   -3.3121    2.0114 C.3       1 <0>         0.0953
     34 C24         6.6239   -3.2086    1.2690 C.3       1 <0>         0.1036
     35 N6          6.9108   -4.4803    0.6006 N.am      1 <0>        -0.7331
     36 C25         8.0412   -4.6233   -0.1193 C.2       1 <0>         0.5130
     37 O3          8.8209   -3.6992   -0.2138 O.2       1 <0>        -0.5381
     38 C26         8.3362   -5.9315   -0.8068 C.3       1 <0>        -0.1721
     39 H1         -0.6045   -2.4551    0.2365 H         1 <0>         0.0621
     40 H2          0.8078   -2.0239    1.2304 H         1 <0>         0.0705
     41 H3         -0.8239   -1.5274    1.7396 H         1 <0>         0.0881
     42 H4         -1.0027   -0.0177   -0.1871 H         1 <0>         0.1053
     43 H5          0.4809    0.3550    0.7231 H         1 <0>         0.1244
     44 H6          0.7713   -1.5504   -5.3872 H         1 <0>         0.4456
     45 H7         -0.7047   -1.4088   -4.5972 H         1 <0>         0.4307
     46 H8          4.7816   -0.6255   -1.4401 H         1 <0>         0.4318
     47 H9          4.7913   -0.9784   -3.0826 H         1 <0>         0.4291
     48 H10         2.2466    1.7347    0.2734 H         1 <0>         0.1423
     49 H11         3.4199    2.2180    2.3798 H         1 <0>         0.1535
     50 H12         3.6873   -2.2997    0.3942 H         1 <0>         0.1385
     51 H13         7.0240   -0.0381    5.2156 H         1 <0>         0.0820
     52 H14         5.7651    0.7034    6.2324 H         1 <0>         0.0891
     53 H15         6.1642   -1.0205    6.4256 H         1 <0>         0.0990
     54 H16         4.0413   -2.8839    5.6590 H         1 <0>         0.1353
     55 H17         1.8811   -3.2631    6.7778 H         1 <0>         0.1436
     56 H18         0.3142   -1.3903    7.0968 H         1 <0>         0.1460
     57 H19         3.0724    1.2425    5.1862 H         1 <0>         0.1430
     58 H20         5.3485   -4.1078    2.7540 H         1 <0>         0.1062
     59 H21         4.4950   -3.5363    1.3004 H         1 <0>         0.0939
     60 H22         6.5656   -2.4129    0.5263 H         1 <0>         0.0693
     61 H23         7.4191   -2.9844    1.9800 H         1 <0>         0.0786
     62 H24         6.2871   -5.2194    0.6762 H         1 <0>         0.4026
     63 H25         7.5283   -6.6360   -0.6094 H         1 <0>         0.0770
     64 H26         8.4202   -5.7665   -1.8810 H         1 <0>         0.0977
     65 H27         9.2736   -6.3380   -0.4273 H         1 <0>         0.1004
     66 H28        -0.7541   -0.9345   -2.3376 H         1 <0>         0.4421
@<TRIPOS>BOND
     1    1    2 1
     2    1   39 1
     3    1   40 1
     4    1   41 1
     5    2    3 1
     6    2   42 1
     7    2   43 1
     8    3    8 ar
     9    3    4 ar
    10    4    5 ar
    11    4   11 1
    12    5    6 ar
    13    5   10 1
    14    6    7 ar
    15    7    8 ar
    16    7    9 1
    17    8   66 1
    18    9   44 1
    19    9   45 1
    20   10   46 1
    21   10   47 1
    22   11   16 ar
    23   11   12 ar
    24   12   13 ar
    25   12   48 1
    26   13   14 ar
    27   13   49 1
    28   14   21 1
    29   14   15 ar
    30   15   16 ar
    31   15   17 1
    32   16   50 1
    33   17   18 am
    34   17   33 1
    35   18   19 2
    36   18   20 1
    37   20   21 1
    38   20   22 1
    39   20   23 1
    40   22   51 1
    41   22   52 1
    42   22   53 1
    43   23   28 ar
    44   23   24 ar
    45   24   25 ar
    46   24   54 1
    47   25   26 ar
    48   25   55 1
    49   26   27 ar
    50   26   56 1
    51   27   28 ar
    52   27   29 1
    53   28   57 1
    54   29   30 1
    55   29   31 1
    56   29   32 1
    57   33   34 1
    58   33   58 1
    59   33   59 1
    60   34   35 1
    61   34   60 1
    62   34   61 1
    63   35   36 am
    64   35   62 1
    65   36   37 2
    66   36   38 1
    67   38   63 1
    68   38   64 1
    69   38   65 1
@<TRIPOS>MOLECULE
CHEMBL393363
   65    68     0     0     0
SMALL
USER_CHARGES

@<TRIPOS>ATOM
      1 C1         -0.0187    1.5258    0.0104 C.3       1 <0>        -0.1398
      2 C2          0.0021   -0.0041    0.0020 C.3       1 <0>        -0.0816
      3 C3          0.7074   -0.4901   -1.2379 C.ar      1 <0>         0.2701
      4 C4         -0.0072   -0.7231   -2.4107 C.ar      1 <0>        -0.2846
      5 C5          0.6976   -1.1764   -3.5411 C.ar      1 <0>         0.4981
      6 N1          2.0090   -1.3634   -3.4470 N.ar      1 <0>        -0.6301
      7 C6          2.6466   -1.1284   -2.3099 C.ar      1 <0>         0.6112
      8 N2          2.0147   -0.6959   -1.2283 N.ar      1 <0>        -0.6022
      9 N3          4.0135   -1.3353   -2.2514 N.pl3     1 <0>        -0.8189
     10 N4          0.0353   -1.4235   -4.7307 N.pl3     1 <0>        -0.8302
     11 C7         -1.4722   -0.4998   -2.4664 C.ar      1 <0>         0.0029
     12 C8         -2.3272   -1.2811   -1.6903 C.ar      1 <0>        -0.0974
     13 C9         -3.6917   -1.0786   -1.7457 C.ar      1 <0>        -0.0962
     14 C10        -4.2149   -0.0960   -2.5708 C.ar      1 <0>         0.0782
     15 C11        -3.3639    0.6956   -3.3409 C.ar      1 <0>         0.1036
     16 C12        -1.9956    0.4952   -3.2904 C.ar      1 <0>        -0.1244
     17 N5         -3.9037    1.7091   -4.1450 N.am      1 <0>        -0.5411
     18 C13        -5.2021    2.0458   -3.9977 C.2       1 <0>         0.5046
     19 O1         -5.7146    2.8415   -4.7563 O.2       1 <0>        -0.4909
     20 C14        -6.0134    1.4287   -2.8867 C.3       1 <0>         0.1572
     21 O2         -5.5601    0.0954   -2.6431 O.3       1 <0>        -0.2884
     22 C15        -7.4890    1.3991   -3.2897 C.3       1 <0>        -0.1297
     23 C16        -5.8532    2.2497   -1.6331 C.ar      1 <0>        -0.1207
     24 C17        -5.6258    3.6105   -1.7224 C.ar      1 <0>        -0.0739
     25 C18        -5.4789    4.3635   -0.5727 C.ar      1 <0>        -0.1137
     26 C19        -5.5598    3.7559    0.6666 C.ar      1 <0>        -0.0602
     27 C20        -5.7880    2.3957    0.7558 C.ar      1 <0>        -0.1798
     28 C21        -5.9392    1.6432   -0.3941 C.ar      1 <0>        -0.0368
     29 C22        -5.8757    1.7334    2.1067 C.3       1 <0>         0.5094
     30 F1         -5.6957    2.6927    3.1089 F         1 <0>        -0.1754
     31 F2         -7.1326    1.1367    2.2527 F         1 <0>        -0.1741
     32 F3         -4.8803    0.7561    2.2124 F         1 <0>        -0.1730
     33 C23        -3.0678    2.3951   -5.1334 C.3       1 <0>         0.0962
     34 C24        -3.1433    1.6522   -6.4688 C.3       1 <0>         0.1047
     35 N6         -2.3074    2.3381   -7.4572 N.am      1 <0>        -0.7299
     36 C25        -2.2195    1.8593   -8.7140 C.2       1 <0>         0.5124
     37 O3         -2.8324    0.8606   -9.0267 O.2       1 <0>        -0.5415
     38 C26        -1.3597    2.5649   -9.7307 C.3       1 <0>        -0.1710
     39 H1          1.0039    1.9031    0.0027 H         1 <0>         0.0588
     40 H2         -0.5459    1.8868   -0.8726 H         1 <0>         0.0539
     41 H3         -0.5289    1.8773    0.9072 H         1 <0>         0.0650
     42 H4          0.5293   -0.3651    0.8851 H         1 <0>         0.0878
     43 H5         -1.0205   -0.3814    0.0098 H         1 <0>         0.0889
     44 H6          4.4908   -1.6479   -3.0358 H         1 <0>         0.4140
     45 H7          4.4945   -1.1676   -1.4258 H         1 <0>         0.4160
     46 H8         -0.9228   -1.2844   -4.7904 H         1 <0>         0.4118
     47 H9          0.5292   -1.7357   -5.5050 H         1 <0>         0.4079
     48 H10        -1.9214   -2.0462   -1.0450 H         1 <0>         0.1372
     49 H11        -4.3521   -1.6870   -1.1456 H         1 <0>         0.1436
     50 H12        -1.3361    1.1048   -3.8902 H         1 <0>         0.1325
     51 H13        -7.6059    0.8071   -4.1974 H         1 <0>         0.0792
     52 H14        -8.0761    0.9530   -2.4869 H         1 <0>         0.0851
     53 H15        -7.8364    2.4161   -3.4720 H         1 <0>         0.0947
     54 H16        -5.5626    4.0851   -2.6905 H         1 <0>         0.1345
     55 H17        -5.3005    5.4264   -0.6425 H         1 <0>         0.1411
     56 H18        -5.4443    4.3442    1.5649 H         1 <0>         0.1438
     57 H19        -6.1213    0.5810   -0.3243 H         1 <0>         0.1428
     58 H20        -3.4249    3.4165   -5.2652 H         1 <0>         0.1014
     59 H21        -2.0349    2.4134   -4.7857 H         1 <0>         0.0960
     60 H22        -2.7862    0.6308   -6.3371 H         1 <0>         0.0720
     61 H23        -4.1762    1.6339   -6.8165 H         1 <0>         0.0761
     62 H24        -1.8173    3.1369   -7.2072 H         1 <0>         0.4022
     63 H25        -0.8912    3.4345   -9.2697 H         1 <0>         0.0765
     64 H26        -0.5879    1.8838  -10.0893 H         1 <0>         0.0969
     65 H27        -1.9779    2.8869  -10.5687 H         1 <0>         0.0973
@<TRIPOS>BOND
     1    1    2 1
     2    1   39 1
     3    1   40 1
     4    1   41 1
     5    2    3 1
     6    2   42 1
     7    2   43 1
     8    3    8 ar
     9    3    4 ar
    10    4    5 ar
    11    4   11 1
    12    5    6 ar
    13    5   10 1
    14    6    7 ar
    15    7    8 ar
    16    7    9 1
    17    9   44 1
    18    9   45 1
    19   10   46 1
    20   10   47 1
    21   11   16 ar
    22   11   12 ar
    23   12   13 ar
    24   12   48 1
    25   13   14 ar
    26   13   49 1
    27   14   21 1
    28   14   15 ar
    29   15   16 ar
    30   15   17 1
    31   16   50 1
    32   17   18 am
    33   17   33 1
    34   18   19 2
    35   18   20 1
    36   20   21 1
    37   20   22 1
    38   20   23 1
    39   22   51 1
    40   22   52 1
    41   22   53 1
    42   23   28 ar
    43   23   24 ar
    44   24   25 ar
    45   24   54 1
    46   25   26 ar
    47   25   55 1
    48   26   27 ar
    49   26   56 1
    50   27   28 ar
    51   27   29 1
    52   28   57 1
    53   29   30 1
    54   29   31 1
    55   29   32 1
    56   33   34 1
    57   33   58 1
    58   33   59 1
    59   34   35 1
    60   34   60 1
    61   34   61 1
    62   35   36 am
    63   35   62 1
    64   36   37 2
    65   36   38 1
    66   38   63 1
    67   38   64 1
    68   38   65 1
@<TRIPOS>MOLECULE
CHEMBL393363
   66    69     0     0     0
SMALL
USER_CHARGES

@<TRIPOS>ATOM
      1 C1         -0.1613   -1.6467    0.9421 C.3       1 <0>        -0.1538
      2 C2         -0.0836   -0.3362    0.1563 C.3       1 <0>        -0.1059
      3 C3          0.7324   -0.5471   -1.0930 C.ar      1 <0>         0.2544
      4 C4          2.1235   -0.4922   -1.0448 C.ar      1 <0>        -0.1878
      5 C5          2.8399   -0.6959   -2.2387 C.ar      1 <0>         0.5397
      6 N1          2.1662   -0.9312   -3.3587 N.ar      1 <0>        -0.5741
      7 C6          0.8423   -0.9742   -3.3563 C.ar      1 <0>         0.6663
      8 N2          0.1370   -0.7923   -2.2491 N.ar      1 <0>        -0.5690
      9 N3          0.1763   -1.2220   -4.5436 N.pl3     1 <0>        -0.7904
     10 N4          4.2229   -0.6513   -2.2457 N.pl3     1 <0>        -0.7721
     11 C7          2.8308   -0.2257    0.2311 C.ar      1 <0>        -0.0571
     12 C8          2.7165    1.0205    0.8453 C.ar      1 <0>        -0.0859
     13 C9          3.3794    1.2722    2.0299 C.ar      1 <0>        -0.0940
     14 C10         4.1579    0.2855    2.6131 C.ar      1 <0>         0.1076
     15 C11         4.2672   -0.9663    2.0089 C.ar      1 <0>         0.1119
     16 C12         3.6063   -1.2229    0.8206 C.ar      1 <0>        -0.1168
     17 N5          5.0300   -1.9669    2.6273 N.am      1 <0>        -0.5477
     18 C13         5.4626   -1.7789    3.8916 C.2       1 <0>         0.4986
     19 O1          6.2132   -2.5821    4.4040 O.2       1 <0>        -0.4668
     20 C14         5.0095   -0.5662    4.6646 C.3       1 <0>         0.1623
     21 O2          4.8281    0.5342    3.7708 O.3       1 <0>        -0.2857
     22 C15         3.6857   -0.8753    5.3667 C.3       1 <0>        -0.1721
     23 C16         6.0508   -0.2098    5.6940 C.ar      1 <0>        -0.0952
     24 C17         6.7766    0.9601    5.5667 C.ar      1 <0>        -0.0560
     25 C18         7.7316    1.2870    6.5108 C.ar      1 <0>        -0.1195
     26 C19         7.9609    0.4443    7.5827 C.ar      1 <0>        -0.0549
     27 C20         7.2347   -0.7247    7.7104 C.ar      1 <0>        -0.1815
     28 C21         6.2764   -1.0496    6.7683 C.ar      1 <0>        -0.0282
     29 C22         7.4850   -1.6434    8.8785 C.3       1 <0>         0.5092
     30 F1          8.4890   -1.1037    9.6895 F         1 <0>        -0.1734
     31 F2          6.3086   -1.7823    9.6229 F         1 <0>        -0.1750
     32 F3          7.8895   -2.8971    8.4074 F         1 <0>        -0.1728
     33 C23         5.3534   -3.2023    1.9094 C.3       1 <0>         0.0955
     34 C24         6.6727   -3.0237    1.1556 C.3       1 <0>         0.1038
     35 N6          6.9961   -4.2591    0.4377 N.am      1 <0>        -0.7329
     36 C25         8.1213   -4.3349   -0.3002 C.2       1 <0>         0.5129
     37 O3          8.8662   -3.3803   -0.3700 O.2       1 <0>        -0.5384
     38 C26         8.4540   -5.6058   -1.0387 C.3       1 <0>        -0.1721
     39 H1         -0.7045   -2.3892    0.3575 H         1 <0>         0.0639
     40 H2          0.8465   -2.0095    1.1439 H         1 <0>         0.0700
     41 H3         -0.6812   -1.4749    1.8846 H         1 <0>         0.0884
     42 H4         -1.0892   -0.0159   -0.1164 H         1 <0>         0.1045
     43 H5          0.3870    0.4298    0.7727 H         1 <0>         0.1245
     44 H6          0.6787   -1.3612   -5.3616 H         1 <0>         0.4457
     45 H7         -0.7930   -1.2566   -4.5580 H         1 <0>         0.4308
     46 H8          4.7067   -0.4785   -1.4229 H         1 <0>         0.4317
     47 H9          4.7085   -0.7929   -3.0733 H         1 <0>         0.4292
     48 H10         2.1086    1.7905    0.3936 H         1 <0>         0.1422
     49 H11         3.2914    2.2394    2.5023 H         1 <0>         0.1541
     50 H12         3.6943   -2.1907    0.3495 H         1 <0>         0.1388
     51 H13         3.8243   -1.7121    6.0513 H         1 <0>         0.0891
     52 H14         3.3576    0.0010    5.9257 H         1 <0>         0.0964
     53 H15         2.9321   -1.1351    4.6232 H         1 <0>         0.0720
     54 H16         6.5975    1.6183    4.7295 H         1 <0>         0.1420
     55 H17         8.2990    2.2005    6.4111 H         1 <0>         0.1436
     56 H18         8.7077    0.6994    8.3200 H         1 <0>         0.1457
     57 H19         5.7063   -1.9612    6.8701 H         1 <0>         0.1372
     58 H20         5.4499   -4.0217    2.6216 H         1 <0>         0.1067
     59 H21         4.5575   -3.4293    1.2001 H         1 <0>         0.0939
     60 H22         6.5762   -2.2043    0.4433 H         1 <0>         0.0688
     61 H23         7.4686   -2.7967    1.8649 H         1 <0>         0.0781
     62 H24         6.4004   -5.0226    0.4935 H         1 <0>         0.4028
     63 H25         7.6744   -6.3458   -0.8578 H         1 <0>         0.0771
     64 H26         8.5178   -5.3991   -2.1070 H         1 <0>         0.0976
     65 H27         9.4102   -5.9916   -0.6854 H         1 <0>         0.1004
     66 H28        -0.8313   -0.8359   -2.2875 H         1 <0>         0.4421
@<TRIPOS>BOND
     1    1    2 1
     2    1   39 1
     3    1   40 1
     4    1   41 1
     5    2    3 1
     6    2   42 1
     7    2   43 1
     8    3    8 ar
     9    3    4 ar
    10    4    5 ar
    11    4   11 1
    12    5    6 ar
    13    5   10 1
    14    6    7 ar
    15    7    8 ar
    16    7    9 1
    17    8   66 1
    18    9   44 1
    19    9   45 1
    20   10   46 1
    21   10   47 1
    22   11   16 ar
    23   11   12 ar
    24   12   13 ar
    25   12   48 1
    26   13   14 ar
    27   13   49 1
    28   14   21 1
    29   14   15 ar
    30   15   16 ar
    31   15   17 1
    32   16   50 1
    33   17   18 am
    34   17   33 1
    35   18   19 2
    36   18   20 1
    37   20   21 1
    38   20   22 1
    39   20   23 1
    40   22   51 1
    41   22   52 1
    42   22   53 1
    43   23   28 ar
    44   23   24 ar
    45   24   25 ar
    46   24   54 1
    47   25   26 ar
    48   25   55 1
    49   26   27 ar
    50   26   56 1
    51   27   28 ar
    52   27   29 1
    53   28   57 1
    54   29   30 1
    55   29   31 1
    56   29   32 1
    57   33   34 1
    58   33   58 1
    59   33   59 1
    60   34   35 1
    61   34   60 1
    62   34   61 1
    63   35   36 am
    64   35   62 1
    65   36   37 2
    66   36   38 1
    67   38   63 1
    68   38   64 1
    69   38   65 1
@<TRIPOS>MOLECULE
CHEMBL393363
   65    68     0     0     0
SMALL
USER_CHARGES

@<TRIPOS>ATOM
      1 C1         -0.0199    1.5971    0.0097 C.3       1 <0>        -0.1409
      2 C2         -0.0229    0.0691    0.0880 C.3       1 <0>        -0.0815
      3 C3          0.6758   -0.4971   -1.1213 C.ar      1 <0>         0.2696
      4 C4         -0.0416   -0.7851   -2.2802 C.ar      1 <0>        -0.2854
      5 C5          0.6569   -1.3125   -3.3821 C.ar      1 <0>         0.4983
      6 N1          1.9652   -1.5141   -3.2754 N.ar      1 <0>        -0.6303
      7 C6          2.6056   -1.2250   -2.1524 C.ar      1 <0>         0.6116
      8 N2          1.9796   -0.7222   -1.0980 N.ar      1 <0>        -0.6024
      9 N3          3.9690   -1.4492   -2.0801 N.pl3     1 <0>        -0.8187
     10 N4         -0.0083   -1.6163   -4.5568 N.pl3     1 <0>        -0.8301
     11 C7         -1.5029   -0.5428   -2.3507 C.ar      1 <0>         0.0032
     12 C8         -2.3704   -1.2655   -1.5330 C.ar      1 <0>        -0.0989
     13 C9         -3.7316   -1.0455   -1.6020 C.ar      1 <0>        -0.0953
     14 C10        -4.2389   -0.1033   -2.4821 C.ar      1 <0>         0.0794
     15 C11        -3.3752    0.6302   -3.2945 C.ar      1 <0>         0.1029
     16 C12        -2.0103    0.4120   -3.2305 C.ar      1 <0>        -0.1251
     17 N5         -3.8987    1.6048   -4.1555 N.am      1 <0>        -0.5433
     18 C13        -5.1919    1.9693   -4.0296 C.2       1 <0>         0.5000
     19 O1         -5.6915    2.7286   -4.8328 O.2       1 <0>        -0.4838
     20 C14        -6.0134    1.4287   -2.8867 C.3       1 <0>         0.1592
     21 O2         -5.5809    0.1045   -2.5673 O.3       1 <0>        -0.2908
     22 C15        -5.8387    2.3303   -1.6630 C.3       1 <0>        -0.1712
     23 C16        -7.4669    1.3995   -3.2836 C.ar      1 <0>        -0.0861
     24 C17        -8.1111    0.1890   -3.4601 C.ar      1 <0>        -0.0554
     25 C18        -9.4441    0.1623   -3.8242 C.ar      1 <0>        -0.1216
     26 C19       -10.1335    1.3460   -4.0115 C.ar      1 <0>        -0.0598
     27 C20        -9.4897    2.5561   -3.8342 C.ar      1 <0>        -0.1849
     28 C21        -8.1574    2.5829   -3.4659 C.ar      1 <0>        -0.0284
     29 C22       -10.2409    3.8464   -4.0389 C.3       1 <0>         0.5098
     30 F1        -11.5625    3.5642   -4.4010 F         1 <0>        -0.1757
     31 F2        -10.2305    4.5855   -2.8511 F         1 <0>        -0.1759
     32 F3         -9.6272    4.5873   -5.0546 F         1 <0>        -0.1732
     33 C23        -3.0516    2.2208   -5.1799 C.3       1 <0>         0.0965
     34 C24        -3.1377    1.4047   -6.4712 C.3       1 <0>         0.1049
     35 N6         -2.2906    2.0206   -7.4955 N.am      1 <0>        -0.7298
     36 C25        -2.2092    1.4701   -8.7230 C.2       1 <0>         0.5124
     37 O3         -2.8373    0.4648   -8.9796 O.2       1 <0>        -0.5418
     38 C26        -1.3378    2.1036   -9.7767 C.3       1 <0>        -0.1710
     39 H1          1.0084    1.9576   -0.0177 H         1 <0>         0.0590
     40 H2         -0.5408    1.9157   -0.8932 H         1 <0>         0.0546
     41 H3         -0.5252    2.0067    0.8844 H         1 <0>         0.0653
     42 H4          0.4980   -0.2494    0.9909 H         1 <0>         0.0877
     43 H5         -1.0512   -0.2913    0.1154 H         1 <0>         0.0889
     44 H6          4.4419   -1.8131   -2.8449 H         1 <0>         0.4142
     45 H7          4.4520   -1.2426   -1.2647 H         1 <0>         0.4161
     46 H8         -0.9641   -1.4661   -4.6257 H         1 <0>         0.4118
     47 H9          0.4812   -1.9795   -5.3114 H         1 <0>         0.4081
     48 H10        -1.9771   -1.9990   -0.8448 H         1 <0>         0.1373
     49 H11        -4.4018   -1.6087   -0.9694 H         1 <0>         0.1443
     50 H12        -1.3410    0.9763   -3.8629 H         1 <0>         0.1329
     51 H13        -6.1719    3.3396   -1.9048 H         1 <0>         0.0841
     52 H14        -6.4324    1.9400   -0.8364 H         1 <0>         0.0925
     53 H15        -4.7875    2.3538   -1.3760 H         1 <0>         0.0743
     54 H16        -7.5726   -0.7356   -3.3137 H         1 <0>         0.1432
     55 H17        -9.9472   -0.7833   -3.9627 H         1 <0>         0.1414
     56 H18       -11.1749    1.3251   -4.2967 H         1 <0>         0.1427
     57 H19        -7.6553    3.5285   -3.3237 H         1 <0>         0.1367
     58 H20        -3.3928    3.2384   -5.3698 H         1 <0>         0.1019
     59 H21        -2.0188    2.2428   -4.8322 H         1 <0>         0.0961
     60 H22        -2.7965    0.3870   -6.2813 H         1 <0>         0.0716
     61 H23        -4.1705    1.3827   -6.8189 H         1 <0>         0.0755
     62 H24        -1.7883    2.8246   -7.2903 H         1 <0>         0.4023
     63 H25        -0.8563    2.9905   -9.3649 H         1 <0>         0.0766
     64 H26        -0.5765    1.3915  -10.0949 H         1 <0>         0.0968
     65 H27        -1.9505    2.3871  -10.6326 H         1 <0>         0.0973
@<TRIPOS>BOND
     1    1    2 1
     2    1   39 1
     3    1   40 1
     4    1   41 1
     5    2    3 1
     6    2   42 1
     7    2   43 1
     8    3    8 ar
     9    3    4 ar
    10    4    5 ar
    11    4   11 1
    12    5    6 ar
    13    5   10 1
    14    6    7 ar
    15    7    8 ar
    16    7    9 1
    17    9   44 1
    18    9   45 1
    19   10   46 1
    20   10   47 1
    21   11   16 ar
    22   11   12 ar
    23   12   13 ar
    24   12   48 1
    25   13   14 ar
    26   13   49 1
    27   14   21 1
    28   14   15 ar
    29   15   16 ar
    30   15   17 1
    31   16   50 1
    32   17   18 am
    33   17   33 1
    34   18   19 2
    35   18   20 1
    36   20   21 1
    37   20   22 1
    38   20   23 1
    39   22   51 1
    40   22   52 1
    41   22   53 1
    42   23   28 ar
    43   23   24 ar
    44   24   25 ar
    45   24   54 1
    46   25   26 ar
    47   25   55 1
    48   26   27 ar
    49   26   56 1
    50   27   28 ar
    51   27   29 1
    52   28   57 1
    53   29   30 1
    54   29   31 1
    55   29   32 1
    56   33   34 1
    57   33   58 1
    58   33   59 1
    59   34   35 1
    60   34   60 1
    61   34   61 1
    62   35   36 am
    63   35   62 1
    64   36   37 2
    65   36   38 1
    66   38   63 1
    67   38   64 1
    68   38   65 1
@<TRIPOS>MOLECULE
CHEMBL526081
   41    44     0     0     0
SMALL
USER_CHARGES

@<TRIPOS>ATOM
      1 C1         -0.0168    1.3904    0.0097 C.ar      1 <0>        -0.1100
      2 C2          1.1672    2.0961    0.0022 C.ar      1 <0>        -0.0966
      3 C3          2.3804    1.4130   -0.0126 C.ar      1 <0>        -0.0380
      4 C4          2.4006    0.0165   -0.0192 C.ar      1 <0>        -0.0696
      5 C5          1.2187   -0.6877   -0.0122 C.ar      1 <0>        -0.1040
      6 C6          0.0021   -0.0041    0.0020 C.ar      1 <0>        -0.0408
      7 C7         -1.2725   -0.7616    0.0099 C.ar      1 <0>        -0.0364
      8 C8         -1.2561   -2.1556    0.0080 C.ar      1 <0>        -0.1022
      9 C9         -2.4426   -2.8600    0.0153 C.ar      1 <0>        -0.1261
     10 C10        -3.6534   -2.1839    0.0245 C.ar      1 <0>         0.0820
     11 C11        -3.6759   -0.7914    0.0264 C.ar      1 <0>         0.0851
     12 C12        -2.4891   -0.0810    0.0249 C.ar      1 <0>        -0.1221
     13 O1         -4.8643   -0.1303    0.0350 O.3       1 <0>        -0.4867
     14 O2         -4.8203   -2.8815    0.0312 O.3       1 <0>        -0.4874
     15 C13         3.7225   -0.7046   -0.0319 C.3       1 <0>        -0.0812
     16 C14         4.7379    0.0830   -0.8568 C.3       1 <0>        -0.0924
     17 C15         4.7802    1.5203   -0.4175 C.2       1 <0>        -0.1116
     18 C16         3.6664    2.1509   -0.0227 C.2       1 <0>        -0.0659
     19 C17         3.7190    3.5711    0.4001 C.ar      1 <0>         0.0028
     20 C18         3.4380    3.9386    1.7196 C.ar      1 <0>        -0.1588
     21 C19         3.4985    5.2715    2.0703 C.ar      1 <0>         0.1013
     22 N1          3.8159    6.1923    1.1804 N.ar      1 <0>        -0.4859
     23 C20         4.0881    5.8881   -0.0742 C.ar      1 <0>         0.1017
     24 C21         4.0566    4.5789   -0.5084 C.ar      1 <0>        -0.1623
     25 H1         -0.9594    1.9174    0.0260 H         1 <0>         0.1274
     26 H2          1.1539    3.1761    0.0081 H         1 <0>         0.1241
     27 H3          1.2324   -1.7675   -0.0184 H         1 <0>         0.1298
     28 H4         -0.3145   -2.6844    0.0005 H         1 <0>         0.1341
     29 H5         -2.4284   -3.9399    0.0134 H         1 <0>         0.1372
     30 H6         -2.5049    0.9988    0.0309 H         1 <0>         0.1370
     31 H7         -5.2023    0.0597    0.9208 H         1 <0>         0.3888
     32 H8         -5.1520   -3.0848    0.9165 H         1 <0>         0.3887
     33 H9          4.0882   -0.8078    0.9897 H         1 <0>         0.0810
     34 H10         3.5906   -1.6943   -0.4692 H         1 <0>         0.0830
     35 H11         5.7254   -0.3605   -0.7292 H         1 <0>         0.0836
     36 H12         4.4580    0.0375   -1.9093 H         1 <0>         0.0826
     37 H13         5.7208    2.0511   -0.4203 H         1 <0>         0.1213
     38 H14         3.1771    3.1901    2.4531 H         1 <0>         0.1349
     39 H15         3.2828    5.5652    3.0870 H         1 <0>         0.1575
     40 H16         4.3434    6.6740   -0.7696 H         1 <0>         0.1579
     41 H17         4.2853    4.3366   -1.5357 H         1 <0>         0.1361
@<TRIPOS>BOND
     1    1    6 ar
     2    1    2 ar
     3    1   25 1
     4    2    3 ar
     5    2   26 1
     6    3   18 1
     7    3    4 ar
     8    4    5 ar
     9    4   15 1
    10    5    6 ar
    11    5   27 1
    12    6    7 1
    13    7   12 ar
    14    7    8 ar
    15    8    9 ar
    16    8   28 1
    17    9   10 ar
    18    9   29 1
    19   10   11 ar
    20   10   14 1
    21   11   12 ar
    22   11   13 1
    23   12   30 1
    24   13   31 1
    25   14   32 1
    26   15   16 1
    27   15   33 1
    28   15   34 1
    29   16   17 1
    30   16   35 1
    31   16   36 1
    32   17   18 2
    33   17   37 1
    34   18   19 1
    35   19   24 ar
    36   19   20 ar
    37   20   21 ar
    38   20   38 1
    39   21   22 ar
    40   21   39 1
    41   22   23 ar
    42   23   24 ar
    43   23   40 1
    44   24   41 1
@<TRIPOS>MOLECULE
CHEMBL266564
   69    73     0     0     0
SMALL
USER_CHARGES

@<TRIPOS>ATOM
      1 C1          0.0893    1.6937    1.2299 C.ar      1 <0>        -0.0686
      2 C2          1.2855    2.3723    1.2883 C.ar      1 <0>        -0.1499
      3 C3          2.4856    1.6832    1.1553 C.ar      1 <0>         0.1270
      4 C4          2.4846    0.3063    0.9628 C.ar      1 <0>        -0.1498
      5 C5          1.2940   -0.3819    0.9034 C.ar      1 <0>        -0.0761
      6 C6          0.0826    0.3072    1.0367 C.ar      1 <0>        -0.0984
      7 C7         -1.1915   -0.4224    0.9741 C.2       1 <0>         0.0152
      8 C8         -1.1952   -1.7604    0.7876 C.2       1 <0>        -0.2112
      9 C9         -2.4244   -2.4643    0.7271 C.2       1 <0>         0.5032
     10 O1         -3.4757   -1.8635    0.8432 O.2       1 <0>        -0.5110
     11 O2         -2.4281   -3.8007    0.5408 O.3       1 <0>        -0.3439
     12 C10        -3.7025   -4.4451    0.4901 C.3       1 <0>         0.0837
     13 C11        -3.5063   -5.9471    0.2746 C.3       1 <0>         0.1121
     14 H1         -2.9010   -6.1104   -0.6171 H         1 <0>         0.0856
     15 C12        -4.8700   -6.6197    0.0961 C.3       1 <0>         0.0920
     16 H2         -5.4905   -6.4226    0.9703 H         1 <0>         0.0826
     17 C13        -4.6691   -8.1303   -0.0589 C.3       1 <0>         0.0871
     18 H3         -4.0902   -8.3306   -0.9605 H         1 <0>         0.0789
     19 C14        -3.9141   -8.6620    1.1633 C.3       1 <0>         0.0643
     20 H4         -4.5154   -8.5061    2.0591 H         1 <0>         0.0846
     21 C15        -2.5874   -7.9105    1.3005 C.3       1 <0>         0.2211
     22 H5         -1.9700   -8.0996    0.4224 H         1 <0>         0.0807
     23 O3         -2.8442   -6.5089    1.4095 O.3       1 <0>        -0.3764
     24 O4         -1.9027   -8.3621    2.4707 O.3       1 <0>        -0.2698
     25 C16        -0.6158   -7.9497    2.6313 C.2       1 <0>        -0.0904
     26 C17         0.3912   -8.3801    1.7289 C.2       1 <0>         0.4103
     27 O5          0.1312   -9.1231    0.7959 O.2       1 <0>        -0.4410
     28 C18         1.7610   -7.8953    1.9614 C.ar      1 <0>        -0.2611
     29 C19         2.8169   -8.2694    1.1195 C.ar      1 <0>         0.2223
     30 C20         4.0896   -7.7926    1.3709 C.ar      1 <0>        -0.2037
     31 C21         4.3187   -6.9482    2.4523 C.ar      1 <0>         0.1958
     32 C22         3.2794   -6.5743    3.2894 C.ar      1 <0>        -0.1808
     33 C23         1.9952   -7.0414    3.0533 C.ar      1 <0>         0.1800
     34 O6          0.9726   -6.6854    3.8586 O.3       1 <0>        -0.2025
     35 C24        -0.2846   -7.1157    3.6567 C.2       1 <0>         0.2069
     36 C25        -1.3438   -6.6733    4.5823 C.ar      1 <0>        -0.0756
     37 C26        -2.2315   -7.6047    5.1285 C.ar      1 <0>        -0.0418
     38 C27        -3.2191   -7.1869    5.9931 C.ar      1 <0>        -0.1511
     39 C28        -3.3339   -5.8419    6.3222 C.ar      1 <0>         0.1363
     40 C29        -2.4537   -4.9124    5.7817 C.ar      1 <0>        -0.1510
     41 C30        -1.4594   -5.3219    4.9207 C.ar      1 <0>        -0.0531
     42 O7         -4.3096   -5.4343    7.1742 O.3       1 <0>        -0.4970
     43 O8          5.5728   -6.4860    2.6902 O.3       1 <0>        -0.4862
     44 O9          2.5915   -9.0941    0.0655 O.3       1 <0>        -0.4713
     45 O10        -3.6586  -10.0580    0.9967 O.3       1 <0>        -0.5504
     46 O11        -5.9411   -8.7744   -0.1545 O.3       1 <0>        -0.5537
     47 O12        -5.5099   -6.0996   -1.0709 O.3       1 <0>        -0.5492
     48 O13         3.6624    2.3571    1.2132 O.3       1 <0>        -0.4980
     49 H6         -0.8423    2.2294    1.3374 H         1 <0>         0.1361
     50 H7          1.2917    3.4420    1.4373 H         1 <0>         0.1358
     51 H8          3.4196   -0.2242    0.8594 H         1 <0>         0.1345
     52 H9          1.2942   -1.4514    0.7535 H         1 <0>         0.1343
     53 H10        -2.1248    0.1110    1.0772 H         1 <0>         0.1422
     54 H11        -0.2618   -2.2939    0.6845 H         1 <0>         0.1400
     55 H12        -4.2314   -4.2788    1.4286 H         1 <0>         0.0803
     56 H13        -4.2855   -4.0330   -0.3335 H         1 <0>         0.1003
     57 H14         4.9083   -8.0766    0.7263 H         1 <0>         0.1516
     58 H15         3.4697   -5.9185    4.1261 H         1 <0>         0.1551
     59 H16        -2.1435   -8.6503    4.8727 H         1 <0>         0.1375
     60 H17        -3.9055   -7.9059    6.4155 H         1 <0>         0.1380
     61 H18        -2.5466   -3.8680    6.0402 H         1 <0>         0.1366
     62 H19        -0.7729   -4.5995    4.5046 H         1 <0>         0.1333
     63 H20        -4.0456   -5.4369    8.1045 H         1 <0>         0.3966
     64 H21         5.7752   -5.6513    2.2460 H         1 <0>         0.4043
     65 H22         2.3649   -8.6326   -0.7535 H         1 <0>         0.4033
     66 H23        -3.1823  -10.4616    1.7353 H         1 <0>         0.3949
     67 H24        -5.8892   -9.7348   -0.2547 H         1 <0>         0.3962
     68 H25        -6.3806   -6.4823   -1.2456 H         1 <0>         0.3966
     69 H26         4.0303    2.4304    2.1045 H         1 <0>         0.3960
@<TRIPOS>BOND
     1    1    6 ar
     2    1    2 ar
     3    1   49 1
     4    2    3 ar
     5    2   50 1
     6    3    4 ar
     7    3   48 1
     8    4    5 ar
     9    4   51 1
    10    5    6 ar
    11    5   52 1
    12    6    7 1
    13    7    8 2
    14    7   53 1
    15    8    9 1
    16    8   54 1
    17    9   10 2
    18    9   11 1
    19   11   12 1
    20   12   13 1
    21   12   55 1
    22   12   56 1
    23   13   14 1
    24   13   23 1
    25   13   15 1
    26   15   16 1
    27   15   17 1
    28   15   47 1
    29   17   18 1
    30   17   19 1
    31   17   46 1
    32   19   20 1
    33   19   21 1
    34   19   45 1
    35   21   22 1
    36   21   23 1
    37   21   24 1
    38   24   25 1
    39   25   35 2
    40   25   26 1
    41   26   27 2
    42   26   28 1
    43   28   33 ar
    44   28   29 ar
    45   29   30 ar
    46   29   44 1
    47   30   31 ar
    48   30   57 1
    49   31   32 ar
    50   31   43 1
    51   32   33 ar
    52   32   58 1
    53   33   34 1
    54   34   35 1
    55   35   36 1
    56   36   41 ar
    57   36   37 ar
    58   37   38 ar
    59   37   59 1
    60   38   39 ar
    61   38   60 1
    62   39   40 ar
    63   39   42 1
    64   40   41 ar
    65   40   61 1
    66   41   62 1
    67   42   63 1
    68   43   64 1
    69   44   65 1
    70   45   66 1
    71   46   67 1
    72   47   68 1
    73   48   69 1
@<TRIPOS>MOLECULE
CHEMBL231620
   58    62     0     0     0
SMALL
USER_CHARGES

@<TRIPOS>ATOM
      1 C1         -0.0494    1.4977    0.0085 C.3       1 <0>        -0.1178
      2 C2          0.0100   -0.0081    0.0011 C.ar      1 <0>        -0.0216
      3 C3          0.0392   -0.6823   -1.1834 C.ar      1 <0>        -0.0973
      4 C4          0.0940   -2.0811   -1.2039 C.ar      1 <0>        -0.0951
      5 C5          0.1193   -2.7982   -0.0088 C.ar      1 <0>        -0.0453
      6 C6          0.0904   -2.1194    1.1964 C.ar      1 <0>         0.0371
      7 C7          0.0410   -0.7126    1.2106 C.ar      1 <0>         0.1216
      8 N1          0.0291   -0.3251    2.5088 N.2       1 <0>        -0.5308
      9 C8          0.0730   -1.3831    3.2871 C.2       1 <0>         0.4340
     10 N2          0.1026   -2.5197    2.5216 N.pl3     1 <0>        -0.5799
     11 H1          0.1372   -3.4327    2.8472 H         1 <0>         0.4412
     12 C9          0.0757   -1.3527    4.7583 C.2       1 <0>        -0.3243
     13 C10         0.1543   -0.1337    5.4475 C.2       1 <0>         0.3751
     14 C11         0.1534   -0.1502    6.8551 C.2       1 <0>        -0.2795
     15 C12         0.0778   -1.3258    7.5159 C.2       1 <0>         0.2020
     16 N3          0.0016   -2.5071    6.8485 N.am      1 <0>        -0.6195
     17 H2         -0.0516   -3.3348    7.3514 H         1 <0>         0.4241
     18 C13        -0.0068   -2.5507    5.5032 C.2       1 <0>         0.5634
     19 O1         -0.0808   -3.6236    4.9277 O.2       1 <0>        -0.5667
     20 N4          0.2314    1.0584    4.7594 N.pl3     1 <0>        -0.6793
     21 C14         0.4337    2.3131    5.4881 C.3       1 <0>         0.0713
     22 C15         0.4823    3.4769    4.4961 C.3       1 <0>         0.1452
     23 C16         0.8124    4.7502    5.2314 C.ar      1 <0>        -0.1119
     24 C17        -0.1754    5.4226    5.9270 C.ar      1 <0>        -0.1057
     25 C18         0.1266    6.5906    6.6016 C.ar      1 <0>        -0.0994
     26 C19         1.4164    7.0874    6.5808 C.ar      1 <0>        -0.1024
     27 C20         2.4051    6.4151    5.8850 C.ar      1 <0>        -0.0315
     28 C21         2.1035    5.2426    5.2149 C.ar      1 <0>        -0.0975
     29 Cl1         4.0251    7.0384    5.8585 Cl        1 <0>        -0.0595
     30 O2         -0.7888    3.6115    3.8572 O.3       1 <0>        -0.5435
     31 C22         0.1246   -2.7989   -2.4953 C.cat     1 <0>         0.3968
     32 N5          0.0760   -4.1529   -2.6583 N.pl3     1 <0>        -0.5209
     33 H3          0.0149   -4.8171   -1.9541 H         1 <0>         0.4595
     34 C23         0.1289   -4.3961   -4.0055 C.2       1 <0>         0.0649
     35 C24         0.2074   -3.1988   -4.6202 C.2       1 <0>        -0.0008
     36 N6          0.1976   -2.2420   -3.6844 N.pl3     1 <0>        -0.4764
     37 C25         0.1045   -5.7465   -4.6738 C.3       1 <0>        -0.1010
     38 H4          0.9631    1.9013    0.0076 H         1 <0>         0.0800
     39 H5         -0.5797    1.8448   -0.8783 H         1 <0>         0.0731
     40 H6         -0.5747    1.8362    0.9017 H         1 <0>         0.0843
     41 H7          0.0195   -0.1332   -2.1131 H         1 <0>         0.1347
     42 H8          0.1608   -3.8773   -0.0236 H         1 <0>         0.1299
     43 H9          0.2135    0.7765    7.4064 H         1 <0>         0.1586
     44 H10         0.0782   -1.3270    8.5959 H         1 <0>         0.1795
     45 H11         0.1516    1.0664    3.7927 H         1 <0>         0.4331
     46 H12        -0.3896    2.4647    6.1861 H         1 <0>         0.0831
     47 H13         1.3731    2.2658    6.0390 H         1 <0>         0.0889
     48 H14         1.2477    3.2822    3.7449 H         1 <0>         0.1179
     49 H15        -1.1834    5.0352    5.9429 H         1 <0>         0.1286
     50 H16        -0.6454    7.1153    7.1448 H         1 <0>         0.1379
     51 H17         1.6521    8.0004    7.1074 H         1 <0>         0.1382
     52 H18         2.8759    4.7150    4.6752 H         1 <0>         0.1354
     53 H19        -1.5188    3.7865    4.4668 H         1 <0>         0.3785
     54 H20         0.2640   -3.0387   -5.6867 H         1 <0>         0.2250
     55 H21        -0.9270   -6.0299   -4.8829 H         1 <0>         0.1024
     56 H22         0.6649   -5.6999   -5.6076 H         1 <0>         0.1089
     57 H23         0.5581   -6.4865   -4.0144 H         1 <0>         0.0909
     58 H24         0.2400   -1.2882   -3.8561 H         1 <0>         0.4624
@<TRIPOS>BOND
     1    1    2 1
     2    1   38 1
     3    1   39 1
     4    1   40 1
     5    2    7 ar
     6    2    3 ar
     7    3    4 ar
     8    3   41 1
     9    4    5 ar
    10    4   31 1
    11    5    6 ar
    12    5   42 1
    13    6   10 1
    14    6    7 ar
    15    7    8 1
    16    8    9 2
    17    9   10 1
    18    9   12 1
    19   10   11 1
    20   12   18 1
    21   12   13 2
    22   13   14 1
    23   13   20 1
    24   14   15 2
    25   14   43 1
    26   15   16 1
    27   15   44 1
    28   16   17 1
    29   16   18 am
    30   18   19 2
    31   20   21 1
    32   20   45 1
    33   21   22 1
    34   21   46 1
    35   21   47 1
    36   22   23 1
    37   22   30 1
    38   22   48 1
    39   23   28 ar
    40   23   24 ar
    41   24   25 ar
    42   24   49 1
    43   25   26 ar
    44   25   50 1
    45   26   27 ar
    46   26   51 1
    47   27   28 ar
    48   27   29 1
    49   28   52 1
    50   30   53 1
    51   31   36 2
    52   31   32 1
    53   32   33 1
    54   32   34 1
    55   34   35 2
    56   34   37 1
    57   35   36 1
    58   35   54 1
    59   36   58 1
    60   37   55 1
    61   37   56 1
    62   37   57 1
@<TRIPOS>MOLECULE
CHEMBL231620
   57    61     0     0     0
SMALL
USER_CHARGES

@<TRIPOS>ATOM
      1 C1         -0.0495    1.4976    0.0085 C.3       1 <0>        -0.1082
      2 C2          0.0108   -0.0082    0.0010 C.ar      1 <0>        -0.0360
      3 C3          0.0405   -0.6825   -1.1834 C.ar      1 <0>        -0.0889
      4 C4          0.0961   -2.0812   -1.2039 C.ar      1 <0>         0.0018
      5 C5          0.1215   -2.7983   -0.0088 C.ar      1 <0>        -0.1043
      6 C6          0.0919   -2.1195    1.1965 C.ar      1 <0>         0.0481
      7 C7          0.0419   -0.7127    1.2106 C.ar      1 <0>         0.0783
      8 N1          0.0287   -0.3252    2.5088 N.2       1 <0>        -0.5258
      9 C8          0.0725   -1.3832    3.2871 C.2       1 <0>         0.3945
     10 N2          0.1045   -2.5197    2.5216 N.pl3     1 <0>        -0.5838
     11 H1          0.1392   -3.4327    2.8473 H         1 <0>         0.4337
     12 C9          0.0740   -1.3527    4.7583 C.2       1 <0>        -0.3040
     13 C10         0.1519   -0.1337    5.4476 C.2       1 <0>         0.3603
     14 C11         0.1505   -0.1503    6.8552 C.2       1 <0>        -0.2735
     15 C12         0.0749   -1.3259    7.5159 C.2       1 <0>         0.1868
     16 N3         -0.0001   -2.5073    6.8485 N.am      1 <0>        -0.6204
     17 H2         -0.0530   -3.3350    7.3514 H         1 <0>         0.4199
     18 C13        -0.0089   -2.5508    5.5032 C.2       1 <0>         0.5576
     19 O1         -0.0827   -3.6236    4.9276 O.2       1 <0>        -0.5661
     20 N4          0.2290    1.0584    4.7595 N.pl3     1 <0>        -0.6839
     21 C14         0.4310    2.3131    5.4883 C.3       1 <0>         0.0761
     22 C15         0.4796    3.4769    4.4964 C.3       1 <0>         0.1424
     23 C16         0.8094    4.7503    5.2317 C.ar      1 <0>        -0.1065
     24 C17        -0.1787    5.4225    5.9272 C.ar      1 <0>        -0.1056
     25 C18         0.1230    6.5905    6.6019 C.ar      1 <0>        -0.1011
     26 C19         1.4128    7.0875    6.5814 C.ar      1 <0>        -0.1055
     27 C20         2.4017    6.4154    5.8857 C.ar      1 <0>        -0.0315
     28 C21         2.1004    5.2429    5.2155 C.ar      1 <0>        -0.0969
     29 Cl1         4.0216    7.0390    5.8595 Cl        1 <0>        -0.0629
     30 O2         -0.7914    3.6114    3.8572 O.3       1 <0>        -0.5396
     31 C22         0.1274   -2.7990   -2.4952 C.2       1 <0>         0.2551
     32 N5          0.1083   -2.2422   -3.6865 N.2       1 <0>        -0.4690
     33 H3          0.2161   -4.8170   -1.9493 H         1 <0>         0.4193
     34 C23         0.1486   -3.1988   -4.6216 C.2       1 <0>         0.0043
     35 C24         0.1945   -4.3963   -4.0038 C.2       1 <0>        -0.0478
     36 N6          0.1869   -4.1529   -2.6557 N.pl3     1 <0>        -0.5660
     37 C25         0.1431   -2.9754   -6.1119 C.3       1 <0>        -0.0691
     38 H4          0.9628    1.9017    0.0078 H         1 <0>         0.0701
     39 H5         -0.5798    1.8443   -0.8785 H         1 <0>         0.0681
     40 H6         -0.5751    1.8357    0.9014 H         1 <0>         0.0744
     41 H7          0.0208   -0.1334   -2.1131 H         1 <0>         0.1426
     42 H8          0.1636   -3.8774   -0.0235 H         1 <0>         0.1167
     43 H9          0.2101    0.7765    7.4065 H         1 <0>         0.1539
     44 H10         0.0745   -1.3271    8.5959 H         1 <0>         0.1739
     45 H11         0.1494    1.0664    3.7928 H         1 <0>         0.4353
     46 H12        -0.3925    2.4646    6.1862 H         1 <0>         0.0782
     47 H13         1.3703    2.2659    6.0394 H         1 <0>         0.0840
     48 H14         1.2452    3.2824    3.7453 H         1 <0>         0.1194
     49 H15        -1.1866    5.0350    5.9430 H         1 <0>         0.1289
     50 H16        -0.6492    7.1151    7.1450 H         1 <0>         0.1363
     51 H17         1.6482    8.0005    7.1080 H         1 <0>         0.1362
     52 H18         2.8730    4.7154    4.6759 H         1 <0>         0.1365
     53 H19        -1.5216    3.7862    4.4667 H         1 <0>         0.3759
     54 H20         0.2341   -5.3641   -4.4815 H         1 <0>         0.1792
     55 H21         1.1686   -2.8810   -6.4690 H         1 <0>         0.0687
     56 H22        -0.3366   -3.8213   -6.6043 H         1 <0>         0.0689
     57 H23        -0.4067   -2.0624   -6.3405 H         1 <0>         0.0712
@<TRIPOS>BOND
     1    1    2 1
     2    1   38 1
     3    1   39 1
     4    1   40 1
     5    2    7 ar
     6    2    3 ar
     7    3    4 ar
     8    3   41 1
     9    4    5 ar
    10    4   31 1
    11    5    6 ar
    12    5   42 1
    13    6   10 1
    14    6    7 ar
    15    7    8 1
    16    8    9 2
    17    9   10 1
    18    9   12 1
    19   10   11 1
    20   12   18 1
    21   12   13 2
    22   13   14 1
    23   13   20 1
    24   14   15 2
    25   14   43 1
    26   15   16 1
    27   15   44 1
    28   16   17 1
    29   16   18 am
    30   18   19 2
    31   20   21 1
    32   20   45 1
    33   21   22 1
    34   21   46 1
    35   21   47 1
    36   22   23 1
    37   22   30 1
    38   22   48 1
    39   23   28 ar
    40   23   24 ar
    41   24   25 ar
    42   24   49 1
    43   25   26 ar
    44   25   50 1
    45   26   27 ar
    46   26   51 1
    47   27   28 ar
    48   27   29 1
    49   28   52 1
    50   30   53 1
    51   31   32 2
    52   31   36 1
    53   32   34 1
    54   33   36 1
    55   34   37 1
    56   34   35 2
    57   35   54 1
    58   35   36 1
    59   37   55 1
    60   37   56 1
    61   37   57 1
@<TRIPOS>MOLECULE
CHEMBL231620
   57    61     0     0     0
SMALL
USER_CHARGES

@<TRIPOS>ATOM
      1 C1         -0.0494    1.4977    0.0085 C.3       1 <0>        -0.1083
      2 C2          0.0100   -0.0081    0.0011 C.ar      1 <0>        -0.0357
      3 C3          0.0392   -0.6823   -1.1834 C.ar      1 <0>        -0.0893
      4 C4          0.0940   -2.0811   -1.2039 C.ar      1 <0>         0.0030
      5 C5          0.1193   -2.7982   -0.0088 C.ar      1 <0>        -0.1052
      6 C6          0.0904   -2.1194    1.1964 C.ar      1 <0>         0.0484
      7 C7          0.0410   -0.7126    1.2106 C.ar      1 <0>         0.0779
      8 N1          0.0291   -0.3251    2.5088 N.2       1 <0>        -0.5257
      9 C8          0.0730   -1.3831    3.2871 C.2       1 <0>         0.3942
     10 N2          0.1026   -2.5197    2.5216 N.pl3     1 <0>        -0.5839
     11 H1          0.1372   -3.4327    2.8472 H         1 <0>         0.4337
     12 C9          0.0757   -1.3527    4.7583 C.2       1 <0>        -0.3040
     13 C10         0.1543   -0.1337    5.4475 C.2       1 <0>         0.3602
     14 C11         0.1534   -0.1502    6.8551 C.2       1 <0>        -0.2735
     15 C12         0.0778   -1.3258    7.5159 C.2       1 <0>         0.1868
     16 N3          0.0016   -2.5071    6.8485 N.am      1 <0>        -0.6203
     17 H2         -0.0516   -3.3348    7.3514 H         1 <0>         0.4199
     18 C13        -0.0068   -2.5507    5.5032 C.2       1 <0>         0.5576
     19 O1         -0.0808   -3.6236    4.9277 O.2       1 <0>        -0.5662
     20 N4          0.2314    1.0584    4.7594 N.pl3     1 <0>        -0.6840
     21 C14         0.4337    2.3131    5.4881 C.3       1 <0>         0.0761
     22 C15         0.4823    3.4769    4.4961 C.3       1 <0>         0.1424
     23 C16         0.8124    4.7502    5.2314 C.ar      1 <0>        -0.1065
     24 C17        -0.1754    5.4226    5.9270 C.ar      1 <0>        -0.1056
     25 C18         0.1266    6.5906    6.6016 C.ar      1 <0>        -0.1010
     26 C19         1.4164    7.0874    6.5808 C.ar      1 <0>        -0.1055
     27 C20         2.4051    6.4151    5.8850 C.ar      1 <0>        -0.0315
     28 C21         2.1035    5.2426    5.2149 C.ar      1 <0>        -0.0969
     29 Cl1         4.0251    7.0384    5.8585 Cl        1 <0>        -0.0629
     30 O2         -0.7888    3.6115    3.8572 O.3       1 <0>        -0.5396
     31 C22         0.1246   -2.7989   -2.4953 C.2       1 <0>         0.2511
     32 N5          0.1724   -4.1532   -2.6559 N.pl3     1 <0>        -0.5643
     33 H3          0.1920   -4.8177   -1.9495 H         1 <0>         0.4177
     34 C23         0.1868   -4.3963   -4.0040 C.2       1 <0>        -0.0181
     35 C24         0.1477   -3.1986   -4.6217 C.2       1 <0>        -0.0208
     36 N6          0.1046   -2.2421   -3.6865 N.2       1 <0>        -0.4689
     37 C25         0.2372   -5.7469   -4.6705 C.3       1 <0>        -0.0793
     38 H4          0.9631    1.9013    0.0076 H         1 <0>         0.0701
     39 H5         -0.5797    1.8448   -0.8783 H         1 <0>         0.0681
     40 H6         -0.5747    1.8362    0.9017 H         1 <0>         0.0744
     41 H7          0.0195   -0.1332   -2.1131 H         1 <0>         0.1428
     42 H8          0.1608   -3.8773   -0.0236 H         1 <0>         0.1162
     43 H9          0.2135    0.7765    7.4064 H         1 <0>         0.1539
     44 H10         0.0782   -1.3270    8.5959 H         1 <0>         0.1739
     45 H11         0.1516    1.0664    3.7927 H         1 <0>         0.4353
     46 H12        -0.3896    2.4647    6.1861 H         1 <0>         0.0781
     47 H13         1.3731    2.2658    6.0390 H         1 <0>         0.0840
     48 H14         1.2477    3.2822    3.7449 H         1 <0>         0.1194
     49 H15        -1.1834    5.0352    5.9429 H         1 <0>         0.1289
     50 H16        -0.6454    7.1153    7.1448 H         1 <0>         0.1363
     51 H17         1.6521    8.0004    7.1074 H         1 <0>         0.1362
     52 H18         2.8759    4.7150    4.6752 H         1 <0>         0.1365
     53 H19        -1.5188    3.7865    4.4668 H         1 <0>         0.3759
     54 H20         0.1468   -3.0383   -5.6897 H         1 <0>         0.1732
     55 H21        -0.7777   -6.1087   -4.8356 H         1 <0>         0.0749
     56 H22         0.7524   -5.6610   -5.6272 H         1 <0>         0.0855
     57 H23         0.7732   -6.4480   -4.0307 H         1 <0>         0.0647
@<TRIPOS>BOND
     1    1    2 1
     2    1   38 1
     3    1   39 1
     4    1   40 1
     5    2    7 ar
     6    2    3 ar
     7    3    4 ar
     8    3   41 1
     9    4    5 ar
    10    4   31 1
    11    5    6 ar
    12    5   42 1
    13    6   10 1
    14    6    7 ar
    15    7    8 1
    16    8    9 2
    17    9   10 1
    18    9   12 1
    19   10   11 1
    20   12   18 1
    21   12   13 2
    22   13   14 1
    23   13   20 1
    24   14   15 2
    25   14   43 1
    26   15   16 1
    27   15   44 1
    28   16   17 1
    29   16   18 am
    30   18   19 2
    31   20   21 1
    32   20   45 1
    33   21   22 1
    34   21   46 1
    35   21   47 1
    36   22   23 1
    37   22   30 1
    38   22   48 1
    39   23   28 ar
    40   23   24 ar
    41   24   25 ar
    42   24   49 1
    43   25   26 ar
    44   25   50 1
    45   26   27 ar
    46   26   51 1
    47   27   28 ar
    48   27   29 1
    49   28   52 1
    50   30   53 1
    51   31   36 2
    52   31   32 1
    53   32   33 1
    54   32   34 1
    55   34   35 2
    56   34   37 1
    57   35   36 1
    58   35   54 1
    59   37   55 1
    60   37   56 1
    61   37   57 1
@<TRIPOS>MOLECULE
CHEMBL231620
   58    62     0     0     0
SMALL
USER_CHARGES

@<TRIPOS>ATOM
      1 C1         -0.0497    1.4978    0.0086 C.3       1 <0>        -0.1152
      2 C2          0.0096   -0.0080    0.0011 C.ar      1 <0>        -0.0211
      3 C3          0.0385   -0.6823   -1.1834 C.ar      1 <0>        -0.0977
      4 C4          0.0932   -2.0811   -1.2040 C.ar      1 <0>        -0.0952
      5 C5          0.1185   -2.7982   -0.0088 C.ar      1 <0>        -0.0455
      6 C6          0.0898   -2.1194    1.1964 C.ar      1 <0>         0.0370
      7 C7          0.0406   -0.7126    1.2106 C.ar      1 <0>         0.1221
      8 N1          0.0289   -0.3251    2.5088 N.2       1 <0>        -0.5294
      9 C8          0.0727   -1.3831    3.2871 C.2       1 <0>         0.4335
     10 N2          0.1021   -2.5197    2.5215 N.pl3     1 <0>        -0.5800
     11 H1          0.1367   -3.4327    2.8472 H         1 <0>         0.4411
     12 C9          0.0755   -1.3527    4.7583 C.2       1 <0>        -0.3242
     13 C10         0.1543   -0.1337    5.4475 C.2       1 <0>         0.3747
     14 C11         0.1535   -0.1502    6.8551 C.2       1 <0>        -0.2796
     15 C12         0.0779   -1.3258    7.5159 C.2       1 <0>         0.2018
     16 N3          0.0016   -2.5071    6.8485 N.am      1 <0>        -0.6195
     17 H2         -0.0516   -3.3348    7.3514 H         1 <0>         0.4241
     18 C13        -0.0070   -2.5507    5.5032 C.2       1 <0>         0.5633
     19 O1         -0.0810   -3.6236    4.9277 O.2       1 <0>        -0.5668
     20 N4          0.2314    1.0584    4.7594 N.pl3     1 <0>        -0.6791
     21 C14         0.4337    2.3131    5.4881 C.3       1 <0>         0.0711
     22 C15         0.4823    3.4769    4.4961 C.3       1 <0>         0.1451
     23 C16         0.6905    4.7675    5.2457 C.ar      1 <0>        -0.1120
     24 C17         1.9693    5.1764    5.5761 C.ar      1 <0>        -0.1052
     25 C18         2.1610    6.3600    6.2636 C.ar      1 <0>        -0.0996
     26 C19         1.0742    7.1356    6.6216 C.ar      1 <0>        -0.1027
     27 C20        -0.2055    6.7270    6.2914 C.ar      1 <0>        -0.0314
     28 C21        -0.3964    5.5450    5.5977 C.ar      1 <0>        -0.0981
     29 Cl1        -1.5709    7.7005    6.7406 Cl        1 <0>        -0.0591
     30 O2          1.5617    3.2780    3.5810 O.3       1 <0>        -0.5430
     31 C22         0.1236   -2.7988   -2.4953 C.cat     1 <0>         0.3969
     32 N5          0.0748   -4.1529   -2.6584 N.pl3     1 <0>        -0.5210
     33 H3          0.0138   -4.8171   -1.9541 H         1 <0>         0.4595
     34 C23         0.1276   -4.3960   -4.0055 C.2       1 <0>         0.0648
     35 C24         0.2062   -3.1987   -4.6202 C.2       1 <0>        -0.0009
     36 N6          0.1966   -2.2419   -3.6844 N.pl3     1 <0>        -0.4764
     37 C25         0.1031   -5.7465   -4.6739 C.3       1 <0>        -0.1009
     38 H4          0.9628    1.9013    0.0076 H         1 <0>         0.0831
     39 H5         -0.5801    1.8449   -0.8782 H         1 <0>         0.0721
     40 H6         -0.5749    1.8363    0.9018 H         1 <0>         0.0798
     41 H7          0.0188   -0.1331   -2.1131 H         1 <0>         0.1346
     42 H8          0.1600   -3.8773   -0.0237 H         1 <0>         0.1298
     43 H9          0.2137    0.7765    7.4064 H         1 <0>         0.1587
     44 H10         0.0785   -1.3270    8.5959 H         1 <0>         0.1794
     45 H11         0.1516    1.0664    3.7927 H         1 <0>         0.4337
     46 H12        -0.3896    2.4647    6.1861 H         1 <0>         0.0893
     47 H13         1.3731    2.2658    6.0390 H         1 <0>         0.0825
     48 H14        -0.4570    3.5241    3.9452 H         1 <0>         0.1190
     49 H15         2.8187    4.5705    5.2972 H         1 <0>         0.1281
     50 H16         3.1602    6.6789    6.5214 H         1 <0>         0.1375
     51 H17         1.2241    8.0601    7.1595 H         1 <0>         0.1381
     52 H18        -1.3949    5.2277    5.3357 H         1 <0>         0.1361
     53 H19         2.4304    3.2261    4.0028 H         1 <0>         0.3777
     54 H20         0.2627   -3.0387   -5.6868 H         1 <0>         0.2250
     55 H21        -0.9285   -6.0297   -4.8828 H         1 <0>         0.1024
     56 H22         0.6634   -5.6999   -5.6077 H         1 <0>         0.1089
     57 H23         0.5566   -6.4865   -4.0145 H         1 <0>         0.0908
     58 H24         0.2390   -1.2882   -3.8561 H         1 <0>         0.4623
@<TRIPOS>BOND
     1    1    2 1
     2    1   38 1
     3    1   39 1
     4    1   40 1
     5    2    7 ar
     6    2    3 ar
     7    3    4 ar
     8    3   41 1
     9    4    5 ar
    10    4   31 1
    11    5    6 ar
    12    5   42 1
    13    6   10 1
    14    6    7 ar
    15    7    8 1
    16    8    9 2
    17    9   10 1
    18    9   12 1
    19   10   11 1
    20   12   18 1
    21   12   13 2
    22   13   14 1
    23   13   20 1
    24   14   15 2
    25   14   43 1
    26   15   16 1
    27   15   44 1
    28   16   17 1
    29   16   18 am
    30   18   19 2
    31   20   21 1
    32   20   45 1
    33   21   22 1
    34   21   46 1
    35   21   47 1
    36   22   23 1
    37   22   30 1
    38   22   48 1
    39   23   28 ar
    40   23   24 ar
    41   24   25 ar
    42   24   49 1
    43   25   26 ar
    44   25   50 1
    45   26   27 ar
    46   26   51 1
    47   27   28 ar
    48   27   29 1
    49   28   52 1
    50   30   53 1
    51   31   36 2
    52   31   32 1
    53   32   33 1
    54   32   34 1
    55   34   35 2
    56   34   37 1
    57   35   36 1
    58   35   54 1
    59   36   58 1
    60   37   55 1
    61   37   56 1
    62   37   57 1
@<TRIPOS>MOLECULE
CHEMBL231620
   57    61     0     0     0
SMALL
USER_CHARGES

@<TRIPOS>ATOM
      1 C1         -0.0497    1.4978    0.0086 C.3       1 <0>        -0.1057
      2 C2          0.0096   -0.0080    0.0011 C.ar      1 <0>        -0.0351
      3 C3          0.0385   -0.6823   -1.1834 C.ar      1 <0>        -0.0898
      4 C4          0.0932   -2.0811   -1.2040 C.ar      1 <0>         0.0030
      5 C5          0.1185   -2.7982   -0.0088 C.ar      1 <0>        -0.1055
      6 C6          0.0898   -2.1194    1.1964 C.ar      1 <0>         0.0483
      7 C7          0.0406   -0.7126    1.2106 C.ar      1 <0>         0.0784
      8 N1          0.0289   -0.3251    2.5088 N.2       1 <0>        -0.5243
      9 C8          0.0727   -1.3831    3.2871 C.2       1 <0>         0.3936
     10 N2          0.1021   -2.5197    2.5215 N.pl3     1 <0>        -0.5841
     11 H1          0.1367   -3.4327    2.8472 H         1 <0>         0.4335
     12 C9          0.0755   -1.3527    4.7583 C.2       1 <0>        -0.3037
     13 C10         0.1543   -0.1337    5.4475 C.2       1 <0>         0.3599
     14 C11         0.1535   -0.1502    6.8551 C.2       1 <0>        -0.2736
     15 C12         0.0779   -1.3258    7.5159 C.2       1 <0>         0.1866
     16 N3          0.0016   -2.5071    6.8485 N.am      1 <0>        -0.6204
     17 H2         -0.0516   -3.3348    7.3514 H         1 <0>         0.4198
     18 C13        -0.0070   -2.5507    5.5032 C.2       1 <0>         0.5574
     19 O1         -0.0810   -3.6236    4.9277 O.2       1 <0>        -0.5663
     20 N4          0.2314    1.0584    4.7594 N.pl3     1 <0>        -0.6837
     21 C14         0.4337    2.3131    5.4881 C.3       1 <0>         0.0757
     22 C15         0.4823    3.4769    4.4961 C.3       1 <0>         0.1424
     23 C16         0.6905    4.7675    5.2457 C.ar      1 <0>        -0.1067
     24 C17         1.9693    5.1764    5.5761 C.ar      1 <0>        -0.1048
     25 C18         2.1610    6.3600    6.2636 C.ar      1 <0>        -0.1009
     26 C19         1.0742    7.1356    6.6216 C.ar      1 <0>        -0.1058
     27 C20        -0.2055    6.7270    6.2914 C.ar      1 <0>        -0.0316
     28 C21        -0.3964    5.5450    5.5977 C.ar      1 <0>        -0.0979
     29 Cl1        -1.5709    7.7005    6.7406 Cl        1 <0>        -0.0632
     30 O2          1.5617    3.2780    3.5810 O.3       1 <0>        -0.5386
     31 C22         0.1236   -2.7988   -2.4953 C.2       1 <0>         0.2512
     32 N5          0.1713   -4.1532   -2.6559 N.pl3     1 <0>        -0.5644
     33 H3          0.1909   -4.8177   -1.9495 H         1 <0>         0.4177
     34 C23         0.1855   -4.3962   -4.0040 C.2       1 <0>        -0.0182
     35 C24         0.1465   -3.1985   -4.6217 C.2       1 <0>        -0.0209
     36 N6          0.1036   -2.2420   -3.6866 N.2       1 <0>        -0.4689
     37 C25         0.2357   -5.7469   -4.6705 C.3       1 <0>        -0.0793
     38 H4          0.9628    1.9013    0.0076 H         1 <0>         0.0731
     39 H5         -0.5801    1.8449   -0.8782 H         1 <0>         0.0672
     40 H6         -0.5749    1.8363    0.9018 H         1 <0>         0.0698
     41 H7          0.0188   -0.1331   -2.1131 H         1 <0>         0.1427
     42 H8          0.1600   -3.8773   -0.0237 H         1 <0>         0.1160
     43 H9          0.2137    0.7765    7.4064 H         1 <0>         0.1540
     44 H10         0.0785   -1.3270    8.5959 H         1 <0>         0.1738
     45 H11         0.1516    1.0664    3.7927 H         1 <0>         0.4359
     46 H12        -0.3896    2.4647    6.1861 H         1 <0>         0.0842
     47 H13         1.3731    2.2658    6.0390 H         1 <0>         0.0776
     48 H14        -0.4570    3.5241    3.9452 H         1 <0>         0.1197
     49 H15         2.8187    4.5705    5.2972 H         1 <0>         0.1289
     50 H16         3.1602    6.6789    6.5214 H         1 <0>         0.1362
     51 H17         1.2241    8.0601    7.1595 H         1 <0>         0.1361
     52 H18        -1.3949    5.2277    5.3357 H         1 <0>         0.1366
     53 H19         2.4304    3.2261    4.0028 H         1 <0>         0.3758
     54 H20         0.1455   -3.0383   -5.6897 H         1 <0>         0.1732
     55 H21        -0.7792   -6.1086   -4.8355 H         1 <0>         0.0749
     56 H22         0.7508   -5.6610   -5.6272 H         1 <0>         0.0854
     57 H23         0.7718   -6.4480   -4.0308 H         1 <0>         0.0647
@<TRIPOS>BOND
     1    1    2 1
     2    1   38 1
     3    1   39 1
     4    1   40 1
     5    2    7 ar
     6    2    3 ar
     7    3    4 ar
     8    3   41 1
     9    4    5 ar
    10    4   31 1
    11    5    6 ar
    12    5   42 1
    13    6   10 1
    14    6    7 ar
    15    7    8 1
    16    8    9 2
    17    9   10 1
    18    9   12 1
    19   10   11 1
    20   12   18 1
    21   12   13 2
    22   13   14 1
    23   13   20 1
    24   14   15 2
    25   14   43 1
    26   15   16 1
    27   15   44 1
    28   16   17 1
    29   16   18 am
    30   18   19 2
    31   20   21 1
    32   20   45 1
    33   21   22 1
    34   21   46 1
    35   21   47 1
    36   22   23 1
    37   22   30 1
    38   22   48 1
    39   23   28 ar
    40   23   24 ar
    41   24   25 ar
    42   24   49 1
    43   25   26 ar
    44   25   50 1
    45   26   27 ar
    46   26   51 1
    47   27   28 ar
    48   27   29 1
    49   28   52 1
    50   30   53 1
    51   31   36 2
    52   31   32 1
    53   32   33 1
    54   32   34 1
    55   34   35 2
    56   34   37 1
    57   35   36 1
    58   35   54 1
    59   37   55 1
    60   37   56 1
    61   37   57 1
@<TRIPOS>MOLECULE
CHEMBL231620
   57    61     0     0     0
SMALL
USER_CHARGES

@<TRIPOS>ATOM
      1 C1         -0.0498    1.4976    0.0085 C.3       1 <0>        -0.1056
      2 C2          0.0103   -0.0082    0.0010 C.ar      1 <0>        -0.0353
      3 C3          0.0399   -0.6824   -1.1834 C.ar      1 <0>        -0.0894
      4 C4          0.0953   -2.0812   -1.2039 C.ar      1 <0>         0.0018
      5 C5          0.1208   -2.7983   -0.0088 C.ar      1 <0>        -0.1046
      6 C6          0.0914   -2.1195    1.1965 C.ar      1 <0>         0.0480
      7 C7          0.0415   -0.7127    1.2106 C.ar      1 <0>         0.0788
      8 N1          0.0285   -0.3252    2.5088 N.2       1 <0>        -0.5244
      9 C8          0.0722   -1.3831    3.2871 C.2       1 <0>         0.3939
     10 N2          0.1041   -2.5197    2.5216 N.pl3     1 <0>        -0.5840
     11 H1          0.1387   -3.4327    2.8473 H         1 <0>         0.4336
     12 C9          0.0739   -1.3527    4.7583 C.2       1 <0>        -0.3037
     13 C10         0.1519   -0.1337    5.4476 C.2       1 <0>         0.3599
     14 C11         0.1506   -0.1503    6.8552 C.2       1 <0>        -0.2735
     15 C12         0.0751   -1.3259    7.5159 C.2       1 <0>         0.1867
     16 N3         -0.0001   -2.5073    6.8485 N.am      1 <0>        -0.6203
     17 H2         -0.0530   -3.3350    7.3514 H         1 <0>         0.4198
     18 C13        -0.0091   -2.5507    5.5032 C.2       1 <0>         0.5574
     19 O1         -0.0830   -3.6236    4.9276 O.2       1 <0>        -0.5663
     20 N4          0.2290    1.0584    4.7595 N.pl3     1 <0>        -0.6837
     21 C14         0.4310    2.3131    5.4883 C.3       1 <0>         0.0757
     22 C15         0.4796    3.4769    4.4964 C.3       1 <0>         0.1424
     23 C16         0.6875    4.7676    5.2460 C.ar      1 <0>        -0.1067
     24 C17         1.9661    5.1766    5.5767 C.ar      1 <0>        -0.1049
     25 C18         2.1576    6.3603    6.2643 C.ar      1 <0>        -0.1009
     26 C19         1.0705    7.1356    6.6222 C.ar      1 <0>        -0.1058
     27 C20        -0.2090    6.7269    6.2916 C.ar      1 <0>        -0.0316
     28 C21        -0.3996    5.5449    5.5979 C.ar      1 <0>        -0.0980
     29 Cl1        -1.5746    7.7001    6.7406 Cl        1 <0>        -0.0632
     30 O2          1.5592    3.2783    3.5815 O.3       1 <0>        -0.5387
     31 C22         0.1264   -2.7990   -2.4952 C.2       1 <0>         0.2552
     32 N5          0.1073   -2.2422   -3.6865 N.2       1 <0>        -0.4690
     33 H3          0.2150   -4.8170   -1.9494 H         1 <0>         0.4193
     34 C23         0.1474   -3.1988   -4.6216 C.2       1 <0>         0.0042
     35 C24         0.1933   -4.3962   -4.0039 C.2       1 <0>        -0.0478
     36 N6          0.1858   -4.1529   -2.6558 N.pl3     1 <0>        -0.5661
     37 C25         0.1418   -2.9754   -6.1120 C.3       1 <0>        -0.0690
     38 H4          0.9625    1.9017    0.0077 H         1 <0>         0.0731
     39 H5         -0.5801    1.8444   -0.8784 H         1 <0>         0.0671
     40 H6         -0.5753    1.8358    0.9015 H         1 <0>         0.0698
     41 H7          0.0201   -0.1333   -2.1131 H         1 <0>         0.1425
     42 H8          0.1628   -3.8773   -0.0236 H         1 <0>         0.1166
     43 H9          0.2103    0.7764    7.4065 H         1 <0>         0.1540
     44 H10         0.0748   -1.3271    8.5959 H         1 <0>         0.1738
     45 H11         0.1494    1.0664    3.7928 H         1 <0>         0.4359
     46 H12        -0.3925    2.4646    6.1862 H         1 <0>         0.0842
     47 H13         1.3703    2.2659    6.0394 H         1 <0>         0.0776
     48 H14        -0.4596    3.5240    3.9452 H         1 <0>         0.1197
     49 H15         2.8157    4.5708    5.2979 H         1 <0>         0.1289
     50 H16         3.1566    6.6793    6.5223 H         1 <0>         0.1362
     51 H17         1.2202    8.0601    7.1600 H         1 <0>         0.1361
     52 H18        -1.3980    5.2275    5.3356 H         1 <0>         0.1366
     53 H19         2.4278    3.2265    4.0034 H         1 <0>         0.3757
     54 H20         0.2328   -5.3641   -4.4815 H         1 <0>         0.1792
     55 H21         1.1673   -2.8811   -6.4691 H         1 <0>         0.0687
     56 H22        -0.3381   -3.8212   -6.6043 H         1 <0>         0.0688
     57 H23        -0.4079   -2.0623   -6.3404 H         1 <0>         0.0712
@<TRIPOS>BOND
     1    1    2 1
     2    1   38 1
     3    1   39 1
     4    1   40 1
     5    2    7 ar
     6    2    3 ar
     7    3    4 ar
     8    3   41 1
     9    4    5 ar
    10    4   31 1
    11    5    6 ar
    12    5   42 1
    13    6   10 1
    14    6    7 ar
    15    7    8 1
    16    8    9 2
    17    9   10 1
    18    9   12 1
    19   10   11 1
    20   12   18 1
    21   12   13 2
    22   13   14 1
    23   13   20 1
    24   14   15 2
    25   14   43 1
    26   15   16 1
    27   15   44 1
    28   16   17 1
    29   16   18 am
    30   18   19 2
    31   20   21 1
    32   20   45 1
    33   21   22 1
    34   21   46 1
    35   21   47 1
    36   22   23 1
    37   22   30 1
    38   22   48 1
    39   23   28 ar
    40   23   24 ar
    41   24   25 ar
    42   24   49 1
    43   25   26 ar
    44   25   50 1
    45   26   27 ar
    46   26   51 1
    47   27   28 ar
    48   27   29 1
    49   28   52 1
    50   30   53 1
    51   31   32 2
    52   31   36 1
    53   32   34 1
    54   33   36 1
    55   34   37 1
    56   34   35 2
    57   35   54 1
    58   35   36 1
    59   37   55 1
    60   37   56 1
    61   37   57 1
@<TRIPOS>MOLECULE
CHEMBL272693
   56    60     0     0     0
SMALL
USER_CHARGES

@<TRIPOS>ATOM
      1 C1          2.0514    0.1466   -0.3882 C.3       1 <0>         0.0148
      2 O1          0.8244   -0.5417   -0.1377 O.3       1 <0>        -0.2863
      3 C2          0.3381   -0.4946    1.1312 C.ar      1 <0>         0.1350
      4 C3          1.0203    0.1957    2.0911 C.ar      1 <0>        -0.1366
      5 C4          0.5181    0.2446    3.4001 C.ar      1 <0>        -0.0898
      6 C5          1.1965    0.9496    4.4196 C.ar      1 <0>         0.2828
      7 C6          0.6400    0.9534    5.6865 C.ar      1 <0>        -0.2642
      8 C7         -0.5504    0.2756    5.9180 C.ar      1 <0>         0.2262
      9 N1         -1.1722   -0.3765    4.9639 N.ar      1 <0>        -0.4813
     10 C8         -0.6911   -0.4216    3.7158 C.ar      1 <0>         0.1817
     11 C9         -1.3700   -1.1239    2.7063 C.ar      1 <0>        -0.2356
     12 C10        -0.8622   -1.1507    1.4394 C.ar      1 <0>         0.2163
     13 O2         -1.5258   -1.8270    0.4653 O.3       1 <0>        -0.2774
     14 C11        -2.7430   -2.4753    0.8397 C.3       1 <0>         0.0116
     15 O3          2.3575    1.6021    4.1644 O.3       1 <0>        -0.2128
     16 C12         2.9064    2.3417    5.1633 C.ar      1 <0>         0.0444
     17 C13         3.5699    1.6997    6.2131 C.ar      1 <0>        -0.1335
     18 C14         4.1291    2.4150    7.2276 C.ar      1 <0>        -0.0855
     19 C15         4.0413    3.8141    7.2236 C.ar      1 <0>        -0.0002
     20 C16         3.3705    4.4690    6.1619 C.ar      1 <0>        -0.0534
     21 C17         2.8079    3.7039    5.1265 C.ar      1 <0>        -0.0776
     22 C18         3.2835    5.8722    6.1578 C.ar      1 <0>        -0.0630
     23 C19         3.8419    6.5953    7.1691 C.ar      1 <0>        -0.1168
     24 C20         4.5041    5.9711    8.2185 C.ar      1 <0>        -0.0496
     25 C21         4.6129    4.5887    8.2641 C.ar      1 <0>        -0.1299
     26 C22         5.3163    3.9328    9.3814 C.2       1 <0>         0.5678
     27 O4          5.5021    2.7312    9.3613 O.2       1 <0>        -0.5079
     28 N2          5.7534    4.6649   10.4252 N.am      1 <0>        -0.6622
     29 C23         6.3373    4.0343   11.5233 C.ar      1 <0>         0.1810
     30 C24         7.1254    2.8960   11.3587 C.ar      1 <0>        -0.1741
     31 C25         7.6855    2.3021   12.4706 C.ar      1 <0>         0.1191
     32 N3          7.4831    2.7981   13.6767 N.ar      1 <0>        -0.4909
     33 C26         6.7438    3.8733   13.8737 C.ar      1 <0>         0.1209
     34 C27         6.1529    4.5290   12.8136 C.ar      1 <0>        -0.1970
     35 H1          2.8370   -0.2700    0.2422 H         1 <0>         0.0673
     36 H2          2.3263    0.0294   -1.4365 H         1 <0>         0.1188
     37 H3          1.9268    1.2054   -0.1615 H         1 <0>         0.0667
     38 H4          1.9421    0.7013    1.8442 H         1 <0>         0.1726
     39 H5          1.1291    1.4809    6.4920 H         1 <0>         0.1849
     40 H6         -0.9756    0.2853    6.9107 H         1 <0>         0.2124
     41 H7         -2.2933   -1.6372    2.9307 H         1 <0>         0.1714
     42 H8         -3.1697   -2.9766   -0.0291 H         1 <0>         0.1217
     43 H9         -2.5388   -3.2096    1.6189 H         1 <0>         0.0695
     44 H10        -3.4490   -1.7343    1.2147 H         1 <0>         0.0693
     45 H11         3.6395    0.6220    6.2196 H         1 <0>         0.1389
     46 H12         4.6382    1.9063    8.0329 H         1 <0>         0.1832
     47 H13         2.2972    4.1896    4.3082 H         1 <0>         0.1471
     48 H14         2.7735    6.3782    5.3514 H         1 <0>         0.1424
     49 H15         3.7686    7.6727    7.1542 H         1 <0>         0.1440
     50 H16         4.9380    6.5678    9.0072 H         1 <0>         0.1366
     51 H17         5.6618    5.6305   10.4125 H         1 <0>         0.4152
     52 H18         7.2947    2.4848   10.3745 H         1 <0>         0.1497
     53 H19         8.2971    1.4198   12.3526 H         1 <0>         0.1618
     54 H20         6.6030    4.2471   14.8771 H         1 <0>         0.1631
     55 H21         5.5528    5.4112   12.9813 H         1 <0>         0.1397
     56 H22        -2.0009   -0.8372    5.1683 H         1 <0>         0.4476
@<TRIPOS>BOND
     1    1    2 1
     2    1   35 1
     3    1   36 1
     4    1   37 1
     5    2    3 1
     6    3   12 ar
     7    3    4 ar
     8    4    5 ar
     9    4   38 1
    10    5   10 ar
    11    5    6 ar
    12    6    7 ar
    13    6   15 1
    14    7    8 ar
    15    7   39 1
    16    8    9 ar
    17    8   40 1
    18    9   10 ar
    19    9   56 1
    20   10   11 ar
    21   11   12 ar
    22   11   41 1
    23   12   13 1
    24   13   14 1
    25   14   42 1
    26   14   43 1
    27   14   44 1
    28   15   16 1
    29   16   21 ar
    30   16   17 ar
    31   17   18 ar
    32   17   45 1
    33   18   19 ar
    34   18   46 1
    35   19   25 ar
    36   19   20 ar
    37   20   21 ar
    38   20   22 ar
    39   21   47 1
    40   22   23 ar
    41   22   48 1
    42   23   24 ar
    43   23   49 1
    44   24   25 ar
    45   24   50 1
    46   25   26 1
    47   26   27 2
    48   26   28 am
    49   28   29 1
    50   28   51 1
    51   29   34 ar
    52   29   30 ar
    53   30   31 ar
    54   30   52 1
    55   31   32 ar
    56   31   53 1
    57   32   33 ar
    58   33   34 ar
    59   33   54 1
    60   34   55 1
@<TRIPOS>MOLECULE
CHEMBL101168
   17    18     0     0     0
SMALL
USER_CHARGES

@<TRIPOS>ATOM
      1 C1         -0.0164    1.3599    0.0095 C.ar      1 <0>        -0.0617
      2 C2          1.1675    2.0864    0.0021 C.ar      1 <0>        -0.0378
      3 C3          2.3753    1.4471   -0.0133 C.ar      1 <0>        -0.0861
      4 C4          2.4219    0.0571   -0.0211 C.ar      1 <0>         0.1371
      5 C5          1.2274   -0.6839   -0.0132 C.ar      1 <0>         0.0404
      6 C6          0.0021   -0.0041    0.0020 C.ar      1 <0>        -0.0719
      7 N1          1.5566   -1.9909   -0.0235 N.pl3     1 <0>        -0.2633
      8 N2          2.8355   -2.1294   -0.0369 N.2       1 <0>         0.0399
      9 N3          3.4418   -0.8643   -0.0361 N.pl3     1 <0>        -0.1368
     10 N4          4.7820   -0.6002   -0.0487 N.3       1 <0>        -0.5228
     11 H1         -0.9623    1.8809    0.0259 H         1 <0>         0.1679
     12 H2          1.1332    3.1658    0.0082 H         1 <0>         0.1684
     13 H3          3.2910    2.0197   -0.0196 H         1 <0>         0.1679
     14 H4         -0.9248   -0.5584    0.0075 H         1 <0>         0.1669
     15 H5          5.1465   -0.5348    0.8899 H         1 <0>         0.3966
     16 H6          5.2824   -1.2943   -0.5834 H         1 <0>         0.4059
     17 H7          0.9200   -2.7228   -0.0205 H         1 <0>         0.4894
@<TRIPOS>BOND
     1    1    6 ar
     2    1    2 ar
     3    1   11 1
     4    2    3 ar
     5    2   12 1
     6    3    4 ar
     7    3   13 1
     8    4    9 1
     9    4    5 ar
    10    5    6 ar
    11    5    7 1
    12    6   14 1
    13    7    8 2
    14    7   17 1
    15    8    9 1
    16    9   10 1
    17   10   15 1
    18   10   16 1
@<TRIPOS>MOLECULE
CHEMBL101168
   16    17     0     0     0
SMALL
USER_CHARGES

@<TRIPOS>ATOM
      1 C1         -0.0164    1.3599    0.0095 C.ar      1 <0>        -0.1315
      2 C2          1.1675    2.0864    0.0021 C.ar      1 <0>        -0.0669
      3 C3          2.3753    1.4471   -0.0133 C.ar      1 <0>        -0.1129
      4 C4          2.4219    0.0571   -0.0211 C.ar      1 <0>         0.1138
      5 C5          1.2274   -0.6839   -0.0132 C.ar      1 <0>        -0.0192
      6 C6          0.0021   -0.0041    0.0020 C.ar      1 <0>        -0.0351
      7 N1          1.5566   -1.9909   -0.0235 N.2       1 <0>        -0.2047
      8 N2          2.8355   -2.1294   -0.0369 N.2       1 <0>        -0.0394
      9 N3          3.4418   -0.8643   -0.0361 N.pl3     1 <0>        -0.2512
     10 N4          4.7820   -0.6002   -0.0487 N.3       1 <0>        -0.5565
     11 H1         -0.9623    1.8809    0.0259 H         1 <0>         0.1397
     12 H2          1.1332    3.1658    0.0082 H         1 <0>         0.1401
     13 H3          3.2910    2.0197   -0.0196 H         1 <0>         0.1370
     14 H4         -0.9248   -0.5584    0.0075 H         1 <0>         0.1412
     15 H5          5.1465   -0.5348    0.8899 H         1 <0>         0.3640
     16 H6          5.2824   -1.2943   -0.5834 H         1 <0>         0.3816
@<TRIPOS>BOND
     1    1    6 ar
     2    1    2 ar
     3    1   11 1
     4    2    3 ar
     5    2   12 1
     6    3    4 ar
     7    3   13 1
     8    4    9 1
     9    4    5 ar
    10    5    6 ar
    11    5    7 1
    12    6   14 1
    13    7    8 2
    14    8    9 1
    15    9   10 1
    16   10   15 1
    17   10   16 1
@<TRIPOS>MOLECULE
CHEMBL539650
   75    79     0     0     0
SMALL
USER_CHARGES

@<TRIPOS>ATOM
      1 C1         -0.1479    1.2672   -0.6872 C.3       1 <0>        -0.1357
      2 C2         -0.0076   -0.2550   -0.6240 C.3       1 <0>        -0.0639
      3 C3          0.5479   -0.6596    0.7430 C.3       1 <0>        -0.1407
      4 C4         -1.3785   -0.9026   -0.8293 C.3       1 <0>        -0.1254
      5 S1          1.1256   -0.8124   -1.9262 S.3       1 <0>        -0.0802
      6 C5          2.6755   -0.1071   -1.4732 C.2       1 <0>        -0.2131
      7 C6          3.1448    1.2470   -1.7906 C.ar      1 <0>        -0.0294
      8 C7          2.5900    2.3248   -2.4838 C.ar      1 <0>        -0.1051
      9 C8          3.3084    3.4965   -2.6114 C.ar      1 <0>         0.1011
     10 C9          4.5797    3.6048   -2.0530 C.ar      1 <0>        -0.1868
     11 C10         5.1367    2.5486   -1.3679 C.ar      1 <0>        -0.0858
     12 C11         4.4282    1.3592   -1.2274 C.ar      1 <0>         0.0713
     13 N1          4.7124    0.1576   -0.6138 N.pl3     1 <0>        -0.4712
     14 C12         3.6518   -0.7058   -0.7651 C.2       1 <0>         0.1931
     15 C13         3.5932   -2.1108   -0.2232 C.3       1 <0>        -0.0396
     16 C14         4.1013   -3.0885   -1.2847 C.3       1 <0>        -0.1221
     17 C15         3.2855   -2.9176   -2.5677 C.3       1 <0>        -0.1239
     18 C16         5.5760   -2.8036   -1.5763 C.3       1 <0>        -0.1266
     19 C17         3.9529   -4.5004   -0.7793 C.2       1 <0>         0.5079
     20 O1          3.4841   -4.7057    0.3273 O.co2     1 <0>        -0.6963
     21 O2          4.3015   -5.4375   -1.4771 O.co2     1 <0>        -0.6933
     22 C18         5.9552   -0.1515    0.0976 C.3       1 <0>         0.1356
     23 C19         5.8535    0.3338    1.5207 C.ar      1 <0>        -0.0873
     24 C20         6.1576    1.6491    1.8233 C.ar      1 <0>        -0.1010
     25 C21         6.0660    2.0997    3.1241 C.ar      1 <0>        -0.0702
     26 C22         5.6656    1.2257    4.1355 C.ar      1 <0>        -0.0170
     27 C23         5.3602   -0.0998    3.8236 C.ar      1 <0>        -0.0866
     28 C24         5.4508   -0.5365    2.5180 C.ar      1 <0>        -0.0944
     29 C25         5.5657    1.7018    5.5319 C.2       1 <0>         0.1622
     30 N2          5.8030    2.9077    6.0286 N.2       1 <0>        -0.5028
     31 C26         5.6621    3.1570    7.3092 C.2       1 <0>         0.0291
     32 C27         5.2655    2.1670    8.1525 C.2       1 <0>        -0.2080
     33 S2          5.0848    0.8080    7.0039 S.3       1 <0>         0.0142
     34 O3          2.7729    4.5493   -3.2856 O.3       1 <0>        -0.3150
     35 C28         3.5695    5.7319   -3.3804 C.3       1 <0>         0.1156
     36 C29         2.8181    6.7829   -4.1561 C.ar      1 <0>         0.1254
     37 C30         1.5528    6.5028   -4.6370 C.ar      1 <0>        -0.1471
     38 C31         0.8700    7.4766   -5.3493 C.ar      1 <0>        -0.0751
     39 C32         1.4883    8.7012   -5.5523 C.ar      1 <0>        -0.1756
     40 C33         2.7553    8.9087   -5.0414 C.ar      1 <0>         0.1014
     41 N3          3.3730    7.9608   -4.3637 N.ar      1 <0>        -0.4820
     42 H1          0.8287    1.7285   -0.5409 H         1 <0>         0.0597
     43 H2         -0.5437    1.5554   -1.6611 H         1 <0>         0.0604
     44 H3         -0.8289    1.6021    0.0953 H         1 <0>         0.0513
     45 H4         -0.0879   -0.2517    1.5288 H         1 <0>         0.0534
     46 H5          0.5681   -1.7467    0.8197 H         1 <0>         0.0697
     47 H6          1.5592   -0.2686    0.8545 H         1 <0>         0.0563
     48 H7         -1.7742   -0.6144   -1.8032 H         1 <0>         0.0598
     49 H8         -1.2785   -1.9871   -0.7843 H         1 <0>         0.0659
     50 H9         -2.0594   -0.5677   -0.0469 H         1 <0>         0.0636
     51 H10         1.6046    2.2420   -2.9180 H         1 <0>         0.1314
     52 H11         5.1338    4.5258   -2.1587 H         1 <0>         0.1279
     53 H12         6.1235    2.6431   -0.9394 H         1 <0>         0.1193
     54 H13         4.2185   -2.1834    0.6667 H         1 <0>         0.0678
     55 H14         2.5635   -2.3579    0.0352 H         1 <0>         0.1022
     56 H15         3.4630   -1.9250   -2.9816 H         1 <0>         0.0404
     57 H16         3.5869   -3.6731   -3.2933 H         1 <0>         0.0509
     58 H17         2.2253   -3.0329   -2.3422 H         1 <0>         0.0649
     59 H18         6.1674   -2.9977   -0.6815 H         1 <0>         0.0429
     60 H19         5.9179   -3.4495   -2.3849 H         1 <0>         0.0595
     61 H20         5.6933   -1.7605   -1.8702 H         1 <0>         0.0379
     62 H21         6.1187   -1.2291    0.0920 H         1 <0>         0.1146
     63 H22         6.7901    0.3452   -0.3968 H         1 <0>         0.0973
     64 H23         6.4677    2.3244    1.0397 H         1 <0>         0.1292
     65 H24         6.3040    3.1266    3.3591 H         1 <0>         0.1359
     66 H25         5.0501   -0.7813    4.6020 H         1 <0>         0.1307
     67 H26         5.2105   -1.5609    2.2746 H         1 <0>         0.1405
     68 H27         5.8612    4.1468    7.6927 H         1 <0>         0.1681
     69 H28         5.1013    2.1946    9.2196 H         1 <0>         0.1989
     70 H29         3.7867    6.1049   -2.3795 H         1 <0>         0.0831
     71 H30         4.5035    5.5006   -3.8926 H         1 <0>         0.0836
     72 H31         1.1019    5.5375   -4.4603 H         1 <0>         0.1469
     73 H32        -0.1197    7.2859   -5.7373 H         1 <0>         0.1365
     74 H33         0.9860    9.4827   -6.1031 H         1 <0>         0.1354
     75 H34         3.2436    9.8596   -5.1952 H         1 <0>         0.1582
@<TRIPOS>BOND
     1    1    2 1
     2    1   42 1
     3    1   43 1
     4    1   44 1
     5    2    3 1
     6    2    4 1
     7    2    5 1
     8    3   45 1
     9    3   46 1
    10    3   47 1
    11    4   48 1
    12    4   49 1
    13    4   50 1
    14    5    6 1
    15    6   14 2
    16    6    7 1
    17    7   12 ar
    18    7    8 ar
    19    8    9 ar
    20    8   51 1
    21    9   10 ar
    22    9   34 1
    23   10   11 ar
    24   10   52 1
    25   11   12 ar
    26   11   53 1
    27   12   13 1
    28   13   14 1
    29   13   22 1
    30   14   15 1
    31   15   16 1
    32   15   54 1
    33   15   55 1
    34   16   17 1
    35   16   18 1
    36   16   19 1
    37   17   56 1
    38   17   57 1
    39   17   58 1
    40   18   59 1
    41   18   60 1
    42   18   61 1
    43   19   20 2
    44   19   21 1
    45   22   23 1
    46   22   62 1
    47   22   63 1
    48   23   28 ar
    49   23   24 ar
    50   24   25 ar
    51   24   64 1
    52   25   26 ar
    53   25   65 1
    54   26   27 ar
    55   26   29 1
    56   27   28 ar
    57   27   66 1
    58   28   67 1
    59   29   33 1
    60   29   30 2
    61   30   31 1
    62   31   32 2
    63   31   68 1
    64   32   33 1
    65   32   69 1
    66   34   35 1
    67   35   36 1
    68   35   70 1
    69   35   71 1
    70   36   41 ar
    71   36   37 ar
    72   37   38 ar
    73   37   72 1
    74   38   39 ar
    75   38   73 1
    76   39   40 ar
    77   39   74 1
    78   40   41 ar
    79   40   75 1
@<TRIPOS>MOLECULE
CHEMBL469916
   57    59     0     0     0
SMALL
USER_CHARGES

@<TRIPOS>ATOM
      1 C1         -1.0441    1.4311    0.5361 C.3       1 <0>         0.0245
      2 O1         -1.0273    0.0023    0.5472 O.3       1 <0>        -0.3025
      3 C2         -0.2197   -0.5986    1.4616 C.ar      1 <0>         0.1536
      4 C3          0.5356    0.1715    2.3331 C.ar      1 <0>        -0.2277
      5 C4          1.3568   -0.4383    3.2629 C.ar      1 <0>        -0.0053
      6 C5          1.4287   -1.8172    3.3282 C.ar      1 <0>        -0.2338
      7 C6          0.6767   -2.5944    2.4603 C.ar      1 <0>         0.1520
      8 C7         -0.1545   -1.9853    1.5278 C.ar      1 <0>         0.0229
      9 O2         -0.8985   -2.7446    0.6780 O.3       1 <0>        -0.3127
     10 C8         -0.2972   -3.1018   -0.5682 C.3       1 <0>         0.0353
     11 O3          0.7485   -3.9509    2.5250 O.3       1 <0>        -0.3022
     12 C9          1.6194   -4.5082    3.5115 C.3       1 <0>         0.0249
     13 C10         2.1762    0.4025    4.2078 C.3       1 <0>        -0.0823
     14 C11         1.3687    0.6759    5.4782 C.3       1 <0>        -0.0710
     15 H1          0.4134    1.1278    5.2114 H         1 <0>         0.0930
     16 C12         1.1213   -0.6401    6.2184 C.3       1 <0>         0.0724
     17 O4          0.3181   -0.3929    7.3742 O.3       1 <0>        -0.5682
     18 C13         2.1496    1.6309    6.3832 C.3       1 <0>        -0.0732
     19 H2          1.6270    1.7399    7.3335 H         1 <0>         0.0940
     20 C14         3.5496    1.0665    6.6330 C.3       1 <0>        -0.0766
     21 C15         4.2756    1.9428    7.6210 C.ar      1 <0>        -0.0706
     22 C16         5.0312    3.0097    7.1716 C.ar      1 <0>        -0.1099
     23 C17         5.6986    3.8167    8.0741 C.ar      1 <0>        -0.0974
     24 C18         5.6118    3.5573    9.4323 C.ar      1 <0>         0.0270
     25 C19         4.8506    2.4825    9.8850 C.ar      1 <0>         0.0361
     26 C20         4.1799    1.6814    8.9751 C.ar      1 <0>        -0.0947
     27 O5          4.9242    2.4389   11.2473 O.3       1 <0>        -0.3085
     28 C21         6.0638    3.2467   11.5968 C.3       1 <0>         0.2131
     29 O6          6.1622    4.1872   10.5110 O.3       1 <0>        -0.3093
     30 C22         2.2642    2.9974    5.7045 C.3       1 <0>         0.0719
     31 O7          0.9627    3.5706    5.5651 O.3       1 <0>        -0.5687
     32 H3         -0.0409    1.8048    0.3312 H         1 <0>         0.0567
     33 H4         -1.7272    1.7805   -0.2381 H         1 <0>         0.1032
     34 H5         -1.3772    1.7981    1.5070 H         1 <0>         0.0596
     35 H6          0.4824    1.2491    2.2851 H         1 <0>         0.1356
     36 H7          2.0718   -2.2898    4.0559 H         1 <0>         0.1338
     37 H8         -0.9951   -3.7052   -1.1486 H         1 <0>         0.0924
     38 H9         -0.0490   -2.1977   -1.1242 H         1 <0>         0.0437
     39 H10         0.6111   -3.6749   -0.3823 H         1 <0>         0.0436
     40 H11         2.6391   -4.1693    3.3290 H         1 <0>         0.0572
     41 H12         1.3006   -4.1842    4.5022 H         1 <0>         0.0566
     42 H13         1.5826   -5.5962    3.4557 H         1 <0>         0.1034
     43 H14         3.0917   -0.1294    4.4666 H         1 <0>         0.0807
     44 H15         2.4286    1.3477    3.7272 H         1 <0>         0.0849
     45 H16         0.6037   -1.3364    5.5584 H         1 <0>         0.0511
     46 H17         2.0752   -1.0700    6.5239 H         1 <0>         0.0452
     47 H18         0.1211   -1.1848    7.8929 H         1 <0>         0.3785
     48 H19         3.4679    0.0565    7.0346 H         1 <0>         0.0838
     49 H20         4.1037    1.0407    5.6947 H         1 <0>         0.0816
     50 H21         5.1006    3.2130    6.1132 H         1 <0>         0.1368
     51 H22         6.2881    4.6495    7.7202 H         1 <0>         0.1359
     52 H23         3.5852    0.8499    9.3236 H         1 <0>         0.1354
     53 H24         5.8903    3.7664   12.5391 H         1 <0>         0.1329
     54 H25         6.9636    2.6344   11.6559 H         1 <0>         0.0854
     55 H26         2.8872    3.6537    6.3122 H         1 <0>         0.0518
     56 H27         2.7157    2.8772    4.7197 H         1 <0>         0.0462
     57 H28         0.9591    4.4399    5.1416 H         1 <0>         0.3781
@<TRIPOS>BOND
     1    1    2 1
     2    1   32 1
     3    1   33 1
     4    1   34 1
     5    2    3 1
     6    3    8 ar
     7    3    4 ar
     8    4    5 ar
     9    4   35 1
    10    5    6 ar
    11    5   13 1
    12    6    7 ar
    13    6   36 1
    14    7    8 ar
    15    7   11 1
    16    8    9 1
    17    9   10 1
    18   10   37 1
    19   10   38 1
    20   10   39 1
    21   11   12 1
    22   12   40 1
    23   12   41 1
    24   12   42 1
    25   13   14 1
    26   13   43 1
    27   13   44 1
    28   14   15 1
    29   14   16 1
    30   14   18 1
    31   16   17 1
    32   16   45 1
    33   16   46 1
    34   17   47 1
    35   18   19 1
    36   18   20 1
    37   18   30 1
    38   20   21 1
    39   20   48 1
    40   20   49 1
    41   21   26 ar
    42   21   22 ar
    43   22   23 ar
    44   22   50 1
    45   23   24 ar
    46   23   51 1
    47   24   29 1
    48   24   25 ar
    49   25   26 ar
    50   25   27 1
    51   26   52 1
    52   27   28 1
    53   28   29 1
    54   28   53 1
    55   28   54 1
    56   30   31 1
    57   30   55 1
    58   30   56 1
    59   31   57 1
@<TRIPOS>MOLECULE
CHEMBL390529
   49    52     0     0     0
SMALL
USER_CHARGES

@<TRIPOS>ATOM
      1 C1          3.6298   -4.7174   -2.3419 C.ar      1 <0>        -0.0831
      2 C2          3.0473   -5.9719   -2.3878 C.ar      1 <0>        -0.1038
      3 C3          1.8614   -6.2098   -1.7250 C.ar      1 <0>        -0.0717
      4 C4          1.2487   -5.1812   -1.0060 C.ar      1 <0>        -0.0309
      5 C5          1.8420   -3.9182   -0.9636 C.ar      1 <0>        -0.0703
      6 C6          3.0282   -3.6940   -1.6316 C.ar      1 <0>        -0.0685
      7 C7          1.1879   -2.8020   -0.1907 C.3       1 <0>         0.1134
      8 N1          1.3582   -3.0372    1.2452 N.am      1 <0>        -0.5469
      9 C8          2.5965   -3.2463    1.7487 C.2       1 <0>         0.5648
     10 O1          3.5788   -3.2428    1.0297 O.2       1 <0>        -0.4730
     11 C9          2.7124   -3.4772    3.1952 C.ar      1 <0>        -0.1897
     12 C10         3.9451   -3.7016    3.8073 C.ar      1 <0>        -0.0165
     13 C11         4.0000   -3.9126    5.1680 C.ar      1 <0>        -0.0521
     14 C12         2.8388   -3.9034    5.9325 C.ar      1 <0>        -0.0481
     15 C13         1.6117   -3.6837    5.3481 C.ar      1 <0>        -0.0293
     16 C14         1.5301   -3.4670    3.9687 C.ar      1 <0>         0.1908
     17 N2          0.3428   -3.2468    3.3550 N.2       1 <0>        -0.5442
     18 C15         0.2671   -3.0380    2.0649 C.2       1 <0>         0.6397
     19 N3         -0.9683   -2.8153    1.5098 N.pl3     1 <0>        -0.6136
     20 C16        -1.1663   -1.7361    0.5326 C.3       1 <0>         0.1080
     21 C17        -2.3213   -0.8481    1.0061 C.3       1 <0>        -0.1302
     22 C18        -3.5601   -1.7140    1.2459 C.3       1 <0>        -0.1412
     23 C19        -3.2619   -2.7424    2.3394 C.3       1 <0>         0.0050
     24 H1         -2.9722   -2.2264    3.2548 H         1 <0>         0.1515
     25 C20        -2.1164   -3.6555    1.8768 C.3       1 <0>         0.1229
     26 N4         -4.4616   -3.5518    2.5915 N.4       1 <0>        -0.6325
     27 Cl1         0.1724   -3.6764    6.3187 Cl        1 <0>        -0.0346
     28 Cl2         5.5324   -4.1929    5.9340 Cl        1 <0>        -0.0342
     29 C21         0.0171   -5.4208   -0.3158 C.1       1 <0>         0.2693
     30 N5         -0.9599   -5.6109    0.2318 N.1       1 <0>        -0.4323
     31 H2          4.5605   -4.5377   -2.8594 H         1 <0>         0.1387
     32 H3          3.5223   -6.7664   -2.9442 H         1 <0>         0.1403
     33 H4          1.4075   -7.1891   -1.7622 H         1 <0>         0.1356
     34 H5          3.4883   -2.7175   -1.5996 H         1 <0>         0.1385
     35 H6          1.6510   -1.8530   -0.4609 H         1 <0>         0.1069
     36 H7          0.1250   -2.7687   -0.4299 H         1 <0>         0.1187
     37 H8          4.8506   -3.7103    3.2189 H         1 <0>         0.1575
     38 H9          2.9001   -4.0709    6.9977 H         1 <0>         0.1577
     39 H10        -0.2561   -1.1415    0.4554 H         1 <0>         0.0981
     40 H11        -1.4094   -2.1639   -0.4400 H         1 <0>         0.0853
     41 H12        -2.0404   -0.3500    1.9341 H         1 <0>         0.0858
     42 H13        -2.5417   -0.1008    0.2438 H         1 <0>         0.1046
     43 H14        -4.3904   -1.0811    1.5593 H         1 <0>         0.0955
     44 H15        -3.8258   -2.2310    0.3238 H         1 <0>         0.0910
     45 H16        -2.4353   -4.2366    1.0115 H         1 <0>         0.1019
     46 H17        -1.8332   -4.3277    2.6867 H         1 <0>         0.1116
     47 H18        -4.7288   -4.0301    1.7441 H         1 <0>         0.4340
     48 H19        -4.2646   -4.2297    3.3124 H         1 <0>         0.4395
     49 H20        -5.2154   -2.9517    2.8910 H         1 <0>         0.4396
@<TRIPOS>BOND
     1    1    6 ar
     2    1    2 ar
     3    1   31 1
     4    2    3 ar
     5    2   32 1
     6    3    4 ar
     7    3   33 1
     8    4    5 ar
     9    4   29 1
    10    5    6 ar
    11    5    7 1
    12    6   34 1
    13    7    8 1
    14    7   35 1
    15    7   36 1
    16    8   18 1
    17    8    9 am
    18    9   10 2
    19    9   11 1
    20   11   16 ar
    21   11   12 ar
    22   12   13 ar
    23   12   37 1
    24   13   14 ar
    25   13   28 1
    26   14   15 ar
    27   14   38 1
    28   15   16 ar
    29   15   27 1
    30   16   17 1
    31   17   18 2
    32   18   19 1
    33   19   25 1
    34   19   20 1
    35   20   21 1
    36   20   39 1
    37   20   40 1
    38   21   22 1
    39   21   41 1
    40   21   42 1
    41   22   23 1
    42   22   43 1
    43   22   44 1
    44   23   24 1
    45   23   25 1
    46   23   26 1
    47   25   45 1
    48   25   46 1
    49   26   47 1
    50   26   48 1
    51   26   49 1
    52   29   30 3
@<TRIPOS>MOLECULE
CHEMBL402520
   64    68     0     0     0
SMALL
USER_CHARGES

@<TRIPOS>ATOM
      1 C1         -0.6240    0.7077   -0.3033 C.ar      1 <0>        -0.1193
      2 C2          0.2996    1.6212    0.1693 C.ar      1 <0>        -0.1156
      3 C3          1.6232    1.2516    0.3187 C.ar      1 <0>        -0.1106
      4 C4          2.0231   -0.0317   -0.0039 C.ar      1 <0>        -0.0777
      5 C5          1.0993   -0.9455   -0.4756 C.ar      1 <0>        -0.1167
      6 C6         -0.2240   -0.5755   -0.6264 C.ar      1 <0>        -0.1187
      7 C7          3.4663   -0.4344    0.1581 C.3       1 <0>        -0.0544
      8 C8          3.8887   -1.3081   -1.0253 C.3       1 <0>        -0.1165
      9 C9          5.3633   -1.6905   -0.8784 C.3       1 <0>        -0.1342
     10 C10         5.5515   -2.4976    0.4100 C.3       1 <0>         0.0938
     11 N1          5.0142   -1.7223    1.5364 N.am      1 <0>        -0.6023
     12 C11         3.6330   -1.2272    1.4582 C.3       1 <0>         0.1617
     13 C12         2.6629   -2.4103    1.4655 C.3       1 <0>         0.0410
     14 N2          2.8208   -3.1654    2.7157 N.3       1 <0>        -0.5270
     15 C13         4.0184   -4.0168    2.6693 C.3       1 <0>         0.0079
     16 C14         4.1774   -4.7382    4.0103 C.3       1 <0>         0.0690
     17 O1          2.9909   -5.4873    4.2865 O.3       1 <0>        -0.3862
     18 C15         1.8054   -4.6891    4.3395 C.3       1 <0>         0.0639
     19 C16         1.6224   -3.9673    3.0019 C.3       1 <0>         0.0191
     20 C17         5.7736   -1.4704    2.6210 C.2       1 <0>         0.5016
     21 O2          5.3184   -0.8292    3.5443 O.2       1 <0>        -0.5066
     22 C18         7.1883   -1.9855    2.6864 C.3       1 <0>         0.0839
     23 N3          7.7968   -1.5818    3.9564 N.am      1 <0>        -0.5325
     24 C19         8.4827   -0.3628    4.0617 C.ar      1 <0>         0.1239
     25 C20         8.3349    0.6177    3.0948 C.ar      1 <0>        -0.1015
     26 C21         9.0211    1.8132    3.2164 C.ar      1 <0>        -0.0202
     27 C22         9.8537    2.0301    4.3015 C.ar      1 <0>        -0.0246
     28 C23        10.0039    1.0534    5.2706 C.ar      1 <0>        -0.0857
     29 C24         9.3197   -0.1439    5.1546 C.ar      1 <0>         0.0988
     30 O3          9.4534   -1.1132    6.0993 O.3       1 <0>        -0.2922
     31 C25         8.3056   -1.9277    6.3520 C.3       1 <0>         0.0524
     32 C26         7.7011   -2.3751    5.0456 C.2       1 <0>         0.4984
     33 O4          7.1349   -3.4453    4.9716 O.2       1 <0>        -0.4915
     34 Cl1        10.7125    3.5318    4.4463 Cl        1 <0>        -0.0311
     35 Cl2         8.8382    3.0437    2.0056 Cl        1 <0>        -0.0341
     36 H1         -1.6589    0.9952   -0.4158 H         1 <0>         0.1217
     37 H2         -0.0128    2.6239    0.4213 H         1 <0>         0.1228
     38 H3          2.3450    1.9655    0.6872 H         1 <0>         0.1214
     39 H4          1.4118   -1.9480   -0.7280 H         1 <0>         0.1210
     40 H5         -0.9457   -1.2893   -0.9952 H         1 <0>         0.1217
     41 H6          4.0912    0.4580    0.1934 H         1 <0>         0.0873
     42 H7          3.2795   -2.2117   -1.0452 H         1 <0>         0.0694
     43 H8          3.7478   -0.7548   -1.9537 H         1 <0>         0.0736
     44 H9          5.6697   -2.2933   -1.7334 H         1 <0>         0.0824
     45 H10         5.9708   -0.7866   -0.8336 H         1 <0>         0.0722
     46 H11         5.0169   -3.4440    0.3297 H         1 <0>         0.0750
     47 H12         6.6128   -2.6875    0.5704 H         1 <0>         0.0855
     48 H13         3.4284   -0.5790    2.3103 H         1 <0>         0.1105
     49 H14         1.6399   -2.0418    1.3904 H         1 <0>         0.0940
     50 H15         2.8776   -3.0615    0.6182 H         1 <0>         0.0429
     51 H16         3.9120   -4.7514    1.8712 H         1 <0>         0.0357
     52 H17         4.8969   -3.3994    2.4818 H         1 <0>         0.0957
     53 H18         5.0313   -5.4139    3.9611 H         1 <0>         0.0958
     54 H19         4.3375   -4.0053    4.8011 H         1 <0>         0.0591
     55 H20         0.9437   -5.3294    4.5285 H         1 <0>         0.0972
     56 H21         1.8965   -3.9549    5.1399 H         1 <0>         0.0584
     57 H22         0.7518   -3.3137    3.0571 H         1 <0>         0.0850
     58 H23         1.4776   -4.7011    2.2091 H         1 <0>         0.0411
     59 H24         7.1826   -3.0732    2.6158 H         1 <0>         0.1260
     60 H25         7.7646   -1.5707    1.8594 H         1 <0>         0.1186
     61 H26         7.6860    0.4496    2.2479 H         1 <0>         0.1457
     62 H27        10.6538    1.2254    6.1158 H         1 <0>         0.1623
     63 H28         8.6009   -2.8000    6.9350 H         1 <0>         0.1542
     64 H29         7.5677   -1.3516    6.9103 H         1 <0>         0.1073
@<TRIPOS>BOND
     1    1    6 ar
     2    1    2 ar
     3    1   36 1
     4    2    3 ar
     5    2   37 1
     6    3    4 ar
     7    3   38 1
     8    4    5 ar
     9    4    7 1
    10    5    6 ar
    11    5   39 1
    12    6   40 1
    13    7   12 1
    14    7    8 1
    15    7   41 1
    16    8    9 1
    17    8   42 1
    18    8   43 1
    19    9   10 1
    20    9   44 1
    21    9   45 1
    22   10   11 1
    23   10   46 1
    24   10   47 1
    25   11   12 1
    26   11   20 am
    27   12   13 1
    28   12   48 1
    29   13   14 1
    30   13   49 1
    31   13   50 1
    32   14   19 1
    33   14   15 1
    34   15   16 1
    35   15   51 1
    36   15   52 1
    37   16   17 1
    38   16   53 1
    39   16   54 1
    40   17   18 1
    41   18   19 1
    42   18   55 1
    43   18   56 1
    44   19   57 1
    45   19   58 1
    46   20   21 2
    47   20   22 1
    48   22   23 1
    49   22   59 1
    50   22   60 1
    51   23   32 am
    52   23   24 1
    53   24   29 ar
    54   24   25 ar
    55   25   26 ar
    56   25   61 1
    57   26   27 ar
    58   26   35 1
    59   27   28 ar
    60   27   34 1
    61   28   29 ar
    62   28   62 1
    63   29   30 1
    64   30   31 1
    65   31   32 1
    66   31   63 1
    67   31   64 1
    68   32   33 2
@<TRIPOS>MOLECULE
CHEMBL402520
   65    69     0     0     0
SMALL
USER_CHARGES

@<TRIPOS>ATOM
      1 C1         -0.6651    0.6772   -0.2798 C.ar      1 <0>        -0.1091
      2 C2          0.2451    1.5978    0.2048 C.ar      1 <0>        -0.1076
      3 C3          1.5735    1.2449    0.3519 C.ar      1 <0>        -0.1059
      4 C4          1.9916   -0.0289    0.0148 C.ar      1 <0>        -0.1000
      5 C5          1.0813   -0.9498   -0.4689 C.ar      1 <0>        -0.1327
      6 C6         -0.2469   -0.5964   -0.6173 C.ar      1 <0>        -0.1135
      7 C7          3.4400   -0.4134    0.1742 C.3       1 <0>        -0.0436
      8 C8          3.8746   -1.2719   -1.0158 C.3       1 <0>        -0.1207
      9 C9          5.3541   -1.6355   -0.8714 C.3       1 <0>        -0.1395
     10 C10         5.5528   -2.4502    0.4106 C.3       1 <0>         0.0863
     11 N1          5.0047   -1.6913    1.5429 N.am      1 <0>        -0.6225
     12 C11         3.6170   -1.2143    1.4681 C.3       1 <0>         0.1296
     13 C12         2.6629   -2.4103    1.4655 C.3       1 <0>        -0.0314
     14 N2          2.8208   -3.1654    2.7157 N.4       1 <0>        -0.3811
     15 C13         4.0422   -3.9793    2.6456 C.3       1 <0>        -0.0633
     16 C14         4.2046   -4.7647    3.9494 C.3       1 <0>         0.0427
     17 O1          3.0448   -5.5749    4.1594 O.3       1 <0>        -0.3547
     18 C15         1.8254   -4.8290    4.2111 C.3       1 <0>         0.0358
     19 C16         1.6586   -4.0436    2.9079 C.3       1 <0>        -0.0448
     20 C17         5.7602   -1.4378    2.6298 C.2       1 <0>         0.4929
     21 O2          5.2961   -0.8102    3.5581 O.2       1 <0>        -0.5031
     22 C18         7.1818   -1.9343    2.6917 C.3       1 <0>         0.0835
     23 N3          7.7843   -1.5326    3.9652 N.am      1 <0>        -0.5325
     24 C19         8.4537   -0.3054    4.0805 C.ar      1 <0>         0.1092
     25 C20         8.2930    0.6808    3.1214 C.ar      1 <0>        -0.1007
     26 C21         8.9630    1.8843    3.2528 C.ar      1 <0>        -0.0230
     27 C22         9.7923    2.1038    4.3399 C.ar      1 <0>        -0.0182
     28 C23         9.9553    1.1215    5.3013 C.ar      1 <0>        -0.0835
     29 C24         9.2873   -0.0840    5.1755 C.ar      1 <0>         0.1041
     30 O3          9.4338   -1.0589    6.1125 O.3       1 <0>        -0.2882
     31 C25         8.2970   -1.8907    6.3581 C.3       1 <0>         0.0513
     32 C26         7.6989   -2.3359    5.0480 C.2       1 <0>         0.5042
     33 O4          7.1473   -3.4129    4.9652 O.2       1 <0>        -0.5061
     34 Cl1        10.6307    3.6157    4.4972 Cl        1 <0>        -0.0198
     35 Cl2         8.7639    3.1219    2.0518 Cl        1 <0>        -0.0277
     36 H1         -1.7038    0.9515   -0.3905 H         1 <0>         0.1287
     37 H2         -0.0816    2.5930    0.4682 H         1 <0>         0.1295
     38 H3          2.2848    1.9644    0.7298 H         1 <0>         0.1257
     39 H4          1.4080   -1.9449   -0.7326 H         1 <0>         0.1212
     40 H5         -0.9581   -1.3158   -0.9956 H         1 <0>         0.1276
     41 H6          4.0529    0.4870    0.2170 H         1 <0>         0.1048
     42 H7          3.2776   -2.1834   -1.0433 H         1 <0>         0.0687
     43 H8          3.7265   -0.7131   -1.9400 H         1 <0>         0.0880
     44 H9          5.6689   -2.2272   -1.7310 H         1 <0>         0.0940
     45 H10         5.9494   -0.7239   -0.8191 H         1 <0>         0.0808
     46 H11         5.0310   -3.4031    0.3225 H         1 <0>         0.0792
     47 H12         6.6165   -2.6271    0.5699 H         1 <0>         0.1009
     48 H13         3.4034   -0.5757    2.3252 H         1 <0>         0.1263
     49 H14         1.6356   -2.0555    1.3827 H         1 <0>         0.1524
     50 H15         2.8933   -3.0571    0.6189 H         1 <0>         0.1375
     51 H16         3.9685   -4.6743    1.8092 H         1 <0>         0.1381
     52 H17         4.9051   -3.3286    2.5032 H         1 <0>         0.1422
     53 H18         5.0865   -5.4019    3.8830 H         1 <0>         0.1428
     54 H19         4.3186   -4.0697    4.7813 H         1 <0>         0.0804
     55 H20         0.9854   -5.5126    4.3342 H         1 <0>         0.1432
     56 H21         1.8580   -4.1362    5.0520 H         1 <0>         0.0797
     57 H22         0.7520   -3.4408    2.9601 H         1 <0>         0.1426
     58 H23         1.5858   -4.7386    2.0713 H         1 <0>         0.1398
     59 H24         7.1907   -3.0214    2.6124 H         1 <0>         0.1317
     60 H25         7.7527   -1.5052    1.8683 H         1 <0>         0.1297
     61 H26         7.6468    0.5107    2.2729 H         1 <0>         0.1424
     62 H27        10.6026    1.2955    6.1481 H         1 <0>         0.1662
     63 H28         8.6038   -2.7637    6.9343 H         1 <0>         0.1572
     64 H29         7.5512   -1.3291    6.9207 H         1 <0>         0.1089
     65 H30         2.8887   -2.5227    3.4906 H         1 <0>         0.4229
@<TRIPOS>BOND
     1    1    6 ar
     2    1    2 ar
     3    1   36 1
     4    2    3 ar
     5    2   37 1
     6    3    4 ar
     7    3   38 1
     8    4    5 ar
     9    4    7 1
    10    5    6 ar
    11    5   39 1
    12    6   40 1
    13    7   12 1
    14    7    8 1
    15    7   41 1
    16    8    9 1
    17    8   42 1
    18    8   43 1
    19    9   10 1
    20    9   44 1
    21    9   45 1
    22   10   11 1
    23   10   46 1
    24   10   47 1
    25   11   12 1
    26   11   20 am
    27   12   13 1
    28   12   48 1
    29   13   14 1
    30   13   49 1
    31   13   50 1
    32   14   19 1
    33   14   15 1
    34   14   65 1
    35   15   16 1
    36   15   51 1
    37   15   52 1
    38   16   17 1
    39   16   53 1
    40   16   54 1
    41   17   18 1
    42   18   19 1
    43   18   55 1
    44   18   56 1
    45   19   57 1
    46   19   58 1
    47   20   21 2
    48   20   22 1
    49   22   23 1
    50   22   59 1
    51   22   60 1
    52   23   32 am
    53   23   24 1
    54   24   29 ar
    55   24   25 ar
    56   25   26 ar
    57   25   61 1
    58   26   27 ar
    59   26   35 1
    60   27   28 ar
    61   27   34 1
    62   28   29 ar
    63   28   62 1
    64   29   30 1
    65   30   31 1
    66   31   32 1
    67   31   63 1
    68   31   64 1
    69   32   33 2
@<TRIPOS>MOLECULE
CHEMBL402520
   64    68     0     0     0
SMALL
USER_CHARGES

@<TRIPOS>ATOM
      1 C1         -0.8234    0.2130    0.8789 C.ar      1 <0>        -0.1212
      2 C2          0.1116    1.2146    0.6961 C.ar      1 <0>        -0.1162
      3 C3          1.4289    0.8904    0.4308 C.ar      1 <0>        -0.1134
      4 C4          1.8114   -0.4354    0.3486 C.ar      1 <0>        -0.0754
      5 C5          0.8766   -1.4371    0.5323 C.ar      1 <0>        -0.1148
      6 C6         -0.4410   -1.1129    0.7962 C.ar      1 <0>        -0.1161
      7 C7          3.2473   -0.7888    0.0584 C.3       1 <0>        -0.0570
      8 C8          3.3209   -1.6085   -1.2319 C.3       1 <0>        -0.1102
      9 C9          4.7818   -1.9399   -1.5451 C.3       1 <0>        -0.1358
     10 C10         5.3664   -2.7796   -0.4050 C.3       1 <0>         0.1042
     11 N1          5.1688   -2.0608    0.8611 N.am      1 <0>        -0.6058
     12 C11         3.8146   -1.6154    1.2167 C.3       1 <0>         0.1653
     13 C12         3.8730   -0.7550    2.4805 C.3       1 <0>         0.0691
     14 N2          4.2122   -1.6002    3.6331 N.3       1 <0>        -0.4982
     15 C13         3.1343   -2.5580    3.9195 C.3       1 <0>         0.0082
     16 C14         3.5535   -3.4559    5.0866 C.3       1 <0>         0.0679
     17 O1          3.8689   -2.6412    6.2189 O.3       1 <0>        -0.3867
     18 C15         4.9153   -1.6972    5.9754 C.3       1 <0>         0.0676
     19 C16         4.5099   -0.7815    4.8173 C.3       1 <0>         0.0371
     20 C17         6.2100   -1.8150    1.6809 C.2       1 <0>         0.4980
     21 O2          6.0550   -1.1289    2.6689 O.2       1 <0>        -0.4747
     22 C18         7.5667   -2.3927    1.3699 C.3       1 <0>         0.0863
     23 N3          8.5204   -1.9833    2.4039 N.am      1 <0>        -0.5307
     24 C19         9.2527   -0.7948    2.2668 C.ar      1 <0>         0.1274
     25 C20         8.8764    0.1651    1.3420 C.ar      1 <0>        -0.1017
     26 C21         9.6126    1.3305    1.2215 C.ar      1 <0>        -0.0203
     27 C22        10.7228    1.5380    2.0227 C.ar      1 <0>        -0.0261
     28 C23        11.1021    0.5819    2.9488 C.ar      1 <0>        -0.0861
     29 C24        10.3693   -0.5854    3.0743 C.ar      1 <0>         0.0968
     30 O3         10.7263   -1.5340    3.9812 O.3       1 <0>        -0.2930
     31 C25         9.6659   -2.2877    4.5747 C.3       1 <0>         0.0523
     32 C26         8.7041   -2.7418    3.5065 C.2       1 <0>         0.4987
     33 O4          8.1010   -3.7864    3.6345 O.2       1 <0>        -0.4908
     34 Cl1        11.6423    3.0020    1.8647 Cl        1 <0>        -0.0326
     35 Cl2         9.1436    2.5350    0.0627 Cl        1 <0>        -0.0354
     36 H1         -1.8517    0.4662    1.0906 H         1 <0>         0.1214
     37 H2         -0.1872    2.2505    0.7603 H         1 <0>         0.1220
     38 H3          2.1593    1.6730    0.2873 H         1 <0>         0.1201
     39 H4          1.1754   -2.4729    0.4678 H         1 <0>         0.1184
     40 H5         -1.1714   -1.8955    0.9393 H         1 <0>         0.1218
     41 H6          3.8307    0.1247   -0.0565 H         1 <0>         0.0837
     42 H7          2.7574   -2.5331   -1.1074 H         1 <0>         0.0678
     43 H8          2.8952   -1.0318   -2.0531 H         1 <0>         0.0715
     44 H9          4.8353   -2.5036   -2.4765 H         1 <0>         0.0811
     45 H10         5.3511   -1.0159   -1.6454 H         1 <0>         0.0699
     46 H11         4.8572   -3.7424   -0.3619 H         1 <0>         0.0728
     47 H12         6.4319   -2.9347   -0.5747 H         1 <0>         0.0826
     48 H13         3.1788   -2.4833    1.3921 H         1 <0>         0.0750
     49 H14         4.6330    0.0169    2.3598 H         1 <0>         0.0982
     50 H15         2.9028   -0.2868    2.6464 H         1 <0>         0.0298
     51 H16         2.2268   -2.0158    4.1852 H         1 <0>         0.0366
     52 H17         2.9480   -3.1707    3.0375 H         1 <0>         0.0775
     53 H18         2.7350   -4.1297    5.3397 H         1 <0>         0.0926
     54 H19         4.4299   -4.0379    4.8014 H         1 <0>         0.0565
     55 H20         5.0817   -1.0991    6.8713 H         1 <0>         0.0920
     56 H21         5.8313   -2.2280    5.7161 H         1 <0>         0.0547
     57 H22         5.3277   -0.0975    4.5907 H         1 <0>         0.0884
     58 H23         3.6244   -0.2110    5.0973 H         1 <0>         0.0303
     59 H24         7.5015   -3.4805    1.3459 H         1 <0>         0.1225
     60 H25         7.9034   -2.0273    0.3998 H         1 <0>         0.1113
     61 H26         8.0109    0.0042    0.7164 H         1 <0>         0.1461
     62 H27        11.9683    0.7465    3.5725 H         1 <0>         0.1611
     63 H28        10.0802   -3.1567    5.0858 H         1 <0>         0.1519
     64 H29         9.1352   -1.6634    5.2936 H         1 <0>         0.1055
@<TRIPOS>BOND
     1    1    6 ar
     2    1    2 ar
     3    1   36 1
     4    2    3 ar
     5    2   37 1
     6    3    4 ar
     7    3   38 1
     8    4    5 ar
     9    4    7 1
    10    5    6 ar
    11    5   39 1
    12    6   40 1
    13    7   12 1
    14    7    8 1
    15    7   41 1
    16    8    9 1
    17    8   42 1
    18    8   43 1
    19    9   10 1
    20    9   44 1
    21    9   45 1
    22   10   11 1
    23   10   46 1
    24   10   47 1
    25   11   12 1
    26   11   20 am
    27   12   13 1
    28   12   48 1
    29   13   14 1
    30   13   49 1
    31   13   50 1
    32   14   19 1
    33   14   15 1
    34   15   16 1
    35   15   51 1
    36   15   52 1
    37   16   17 1
    38   16   53 1
    39   16   54 1
    40   17   18 1
    41   18   19 1
    42   18   55 1
    43   18   56 1
    44   19   57 1
    45   19   58 1
    46   20   21 2
    47   20   22 1
    48   22   23 1
    49   22   59 1
    50   22   60 1
    51   23   32 am
    52   23   24 1
    53   24   29 ar
    54   24   25 ar
    55   25   26 ar
    56   25   61 1
    57   26   27 ar
    58   26   35 1
    59   27   28 ar
    60   27   34 1
    61   28   29 ar
    62   28   62 1
    63   29   30 1
    64   30   31 1
    65   31   32 1
    66   31   63 1
    67   31   64 1
    68   32   33 2
@<TRIPOS>MOLECULE
CHEMBL402520
   65    69     0     0     0
SMALL
USER_CHARGES

@<TRIPOS>ATOM
      1 C1         -0.8893   -0.5607    0.7294 C.ar      1 <0>        -0.1090
      2 C2         -0.1386    0.5916    0.5896 C.ar      1 <0>        -0.1105
      3 C3          1.2229    0.5067    0.3664 C.ar      1 <0>        -0.1113
      4 C4          1.8339   -0.7305    0.2835 C.ar      1 <0>        -0.1014
      5 C5          1.0833   -1.8828    0.4242 C.ar      1 <0>        -0.1200
      6 C6         -0.2784   -1.7979    0.6460 C.ar      1 <0>        -0.1125
      7 C7          3.3181   -0.8232    0.0391 C.3       1 <0>        -0.0453
      8 C8          3.5752   -1.5960   -1.2565 C.3       1 <0>        -0.1149
      9 C9          5.0808   -1.6623   -1.5227 C.3       1 <0>        -0.1402
     10 C10         5.7665   -2.4057   -0.3720 C.3       1 <0>         0.0959
     11 N1          5.4057   -1.7533    0.8940 N.am      1 <0>        -0.5993
     12 C11         3.9838   -1.5570    1.2075 C.3       1 <0>         0.1273
     13 C12         3.8501   -0.7206    2.4816 C.3       1 <0>        -0.0089
     14 N2          4.1970   -1.5447    3.6471 N.4       1 <0>        -0.3685
     15 C13         3.1830   -2.5931    3.8251 C.3       1 <0>        -0.0568
     16 C14         3.5467   -3.4506    5.0398 C.3       1 <0>         0.0400
     17 O1          3.6453   -2.6135    6.1954 O.3       1 <0>        -0.3556
     18 C15         4.6044   -1.5609    6.0613 C.3       1 <0>         0.0385
     19 C16         4.2426   -0.6999    4.8485 C.3       1 <0>        -0.0307
     20 C17         6.3610   -1.3432    1.7518 C.2       1 <0>         0.5106
     21 O2          6.0566   -0.7119    2.7417 O.2       1 <0>        -0.5603
     22 C18         7.8072   -1.6690    1.4809 C.3       1 <0>         0.0843
     23 N3          8.6409   -1.1168    2.5515 N.am      1 <0>        -0.5330
     24 C19         9.1571    0.1837    2.4532 C.ar      1 <0>         0.1093
     25 C20         8.6476    1.0787    1.5270 C.ar      1 <0>        -0.1017
     26 C21         9.1712    2.3569    1.4451 C.ar      1 <0>        -0.0236
     27 C22        10.2018    2.7418    2.2862 C.ar      1 <0>        -0.0182
     28 C23        10.7134    1.8511    3.2138 C.ar      1 <0>        -0.0834
     29 C24        10.1934    0.5716    3.3008 C.ar      1 <0>         0.1037
     30 O3         10.6824   -0.3153    4.2086 O.3       1 <0>        -0.2875
     31 C25         9.7525   -1.2531    4.7567 C.3       1 <0>         0.0524
     32 C26         8.9198   -1.8503    3.6511 C.2       1 <0>         0.4981
     33 O4          8.5057   -2.9864    3.7465 O.2       1 <0>        -0.5005
     34 Cl1        10.8545    4.3467    2.1764 Cl        1 <0>        -0.0188
     35 Cl2         8.5351    3.4805    0.2847 Cl        1 <0>        -0.0268
     36 H1         -1.9523   -0.4943    0.9083 H         1 <0>         0.1283
     37 H2         -0.6159    1.5583    0.6544 H         1 <0>         0.1287
     38 H3          1.8093    1.4070    0.2565 H         1 <0>         0.1244
     39 H4          1.5606   -2.8495    0.3590 H         1 <0>         0.1197
     40 H5         -0.8649   -2.6982    0.7555 H         1 <0>         0.1275
     41 H6          3.7360    0.1799   -0.0460 H         1 <0>         0.0962
     42 H7          3.1784   -2.6068   -1.1613 H         1 <0>         0.0749
     43 H8          3.0818   -1.0891   -2.0857 H         1 <0>         0.0863
     44 H9          5.2620   -2.1926   -2.4576 H         1 <0>         0.0963
     45 H10         5.4826   -0.6515   -1.5934 H         1 <0>         0.0772
     46 H11         5.4324   -3.4431   -0.3567 H         1 <0>         0.0914
     47 H12         6.8476   -2.3697   -0.5065 H         1 <0>         0.0985
     48 H13         3.5043   -2.5253    1.3516 H         1 <0>         0.1017
     49 H14         4.5243    0.1342    2.4274 H         1 <0>         0.1629
     50 H15         2.8234   -0.3678    2.5786 H         1 <0>         0.1293
     51 H16         2.2079   -2.1327    3.9839 H         1 <0>         0.1375
     52 H17         3.1484   -3.2205    2.9344 H         1 <0>         0.1316
     53 H18         2.7735   -4.2021    5.1996 H         1 <0>         0.1405
     54 H19         4.5032   -3.9431    4.8644 H         1 <0>         0.0763
     55 H20         4.5967   -0.9447    6.9604 H         1 <0>         0.1399
     56 H21         5.5971   -1.9887    5.9209 H         1 <0>         0.0755
     57 H22         4.9947    0.0781    4.7175 H         1 <0>         0.1430
     58 H23         3.2671   -0.2402    5.0069 H         1 <0>         0.1310
     59 H24         7.9349   -2.7508    1.4423 H         1 <0>         0.1395
     60 H25         8.1052   -1.2336    0.5271 H         1 <0>         0.1311
     61 H26         7.8441    0.7796    0.8703 H         1 <0>         0.1425
     62 H27        11.5171    2.1541    3.8686 H         1 <0>         0.1661
     63 H28        10.2966   -2.0448    5.2718 H         1 <0>         0.1570
     64 H29         9.0979   -0.7439    5.4641 H         1 <0>         0.1071
     65 H30         5.0998   -1.9710    3.5010 H         1 <0>         0.4169
@<TRIPOS>BOND
     1    1    6 ar
     2    1    2 ar
     3    1   36 1
     4    2    3 ar
     5    2   37 1
     6    3    4 ar
     7    3   38 1
     8    4    5 ar
     9    4    7 1
    10    5    6 ar
    11    5   39 1
    12    6   40 1
    13    7   12 1
    14    7    8 1
    15    7   41 1
    16    8    9 1
    17    8   42 1
    18    8   43 1
    19    9   10 1
    20    9   44 1
    21    9   45 1
    22   10   11 1
    23   10   46 1
    24   10   47 1
    25   11   12 1
    26   11   20 am
    27   12   13 1
    28   12   48 1
    29   13   14 1
    30   13   49 1
    31   13   50 1
    32   14   19 1
    33   14   15 1
    34   14   65 1
    35   15   16 1
    36   15   51 1
    37   15   52 1
    38   16   17 1
    39   16   53 1
    40   16   54 1
    41   17   18 1
    42   18   19 1
    43   18   55 1
    44   18   56 1
    45   19   57 1
    46   19   58 1
    47   20   21 2
    48   20   22 1
    49   22   23 1
    50   22   59 1
    51   22   60 1
    52   23   32 am
    53   23   24 1
    54   24   29 ar
    55   24   25 ar
    56   25   26 ar
    57   25   61 1
    58   26   27 ar
    59   26   35 1
    60   27   28 ar
    61   27   34 1
    62   28   29 ar
    63   28   62 1
    64   29   30 1
    65   30   31 1
    66   31   32 1
    67   31   63 1
    68   31   64 1
    69   32   33 2
@<TRIPOS>MOLECULE
CHEMBL402520
   64    68     0     0     0
SMALL
USER_CHARGES

@<TRIPOS>ATOM
      1 C1          0.6715    2.0246    0.3257 C.ar      1 <0>        -0.1283
      2 C2          1.8646    2.6315   -0.0192 C.ar      1 <0>        -0.1157
      3 C3          3.0191    1.8781   -0.1215 C.ar      1 <0>        -0.0937
      4 C4          2.9805    0.5178    0.1216 C.ar      1 <0>        -0.0236
      5 C5          1.7875   -0.0889    0.4674 C.ar      1 <0>        -0.1161
      6 C6          0.6328    0.6643    0.5683 C.ar      1 <0>        -0.1169
      7 C7          4.2389   -0.3037    0.0092 C.3       1 <0>        -0.0516
      8 C8          4.5364   -0.9691    1.3548 C.3       1 <0>        -0.1143
      9 C9          5.8319   -1.7772    1.2509 C.3       1 <0>        -0.1368
     10 C10         5.6611   -2.8749    0.1960 C.3       1 <0>         0.1021
     11 N1          5.2332   -2.2556   -1.0658 N.am      1 <0>        -0.6051
     12 C11         4.0500   -1.3846   -1.0598 C.3       1 <0>         0.1618
     13 C12         3.8903   -0.7267   -2.4319 C.3       1 <0>         0.0567
     14 N2          2.6752    0.0987   -2.4407 N.3       1 <0>        -0.5257
     15 C13         1.4694   -0.7394   -2.5109 C.3       1 <0>         0.0218
     16 C14         0.2285    0.1557   -2.4576 C.3       1 <0>         0.0484
     17 O1          0.2882    1.1086   -3.5223 O.3       1 <0>        -0.3851
     18 C15         1.4497    1.9423   -3.4844 C.3       1 <0>         0.0636
     19 C16         2.7030    1.0653   -3.5481 C.3       1 <0>         0.0273
     20 C17         5.9135   -2.4818   -2.2071 C.2       1 <0>         0.4996
     21 O2          5.5018   -2.0359   -3.2571 O.2       1 <0>        -0.5160
     22 C18         7.1859   -3.2889   -2.1785 C.3       1 <0>         0.0842
     23 N3          7.6664   -3.4917   -3.5475 N.am      1 <0>        -0.5328
     24 C19         7.1824   -4.5564   -4.3217 C.ar      1 <0>         0.1235
     25 C20         6.0339   -5.2359   -3.9506 C.ar      1 <0>        -0.1007
     26 C21         5.5732   -6.2842   -4.7274 C.ar      1 <0>        -0.0204
     27 C22         6.2575   -6.6543   -5.8731 C.ar      1 <0>        -0.0244
     28 C23         7.4051   -5.9777   -6.2482 C.ar      1 <0>        -0.0855
     29 C24         7.8704   -4.9280   -5.4756 C.ar      1 <0>         0.0984
     30 O3          8.9948   -4.2505   -5.8313 O.3       1 <0>        -0.2918
     31 C25         9.0365   -2.8585   -5.5069 C.3       1 <0>         0.0527
     32 C26         8.5784   -2.6528   -4.0855 C.2       1 <0>         0.4984
     33 O4          9.0302   -1.7404   -3.4263 O.2       1 <0>        -0.4948
     34 Cl1         5.6742   -7.9716   -6.8417 Cl        1 <0>        -0.0304
     35 Cl2         4.1343   -7.1380   -4.2643 Cl        1 <0>        -0.0336
     36 H1         -0.2296    2.6140    0.4099 H         1 <0>         0.1146
     37 H2          1.8948    3.6943   -0.2092 H         1 <0>         0.1140
     38 H3          3.9511    2.3522   -0.3916 H         1 <0>         0.1098
     39 H4          1.7573   -1.1517    0.6570 H         1 <0>         0.1097
     40 H5         -0.2993    0.1902    0.8380 H         1 <0>         0.1153
     41 H6          5.0713    0.3423   -0.2697 H         1 <0>         0.0788
     42 H7          4.6469   -0.2030    2.1223 H         1 <0>         0.0719
     43 H8          3.7143   -1.6335    1.6210 H         1 <0>         0.0679
     44 H9          6.6497   -1.1177    0.9606 H         1 <0>         0.0707
     45 H10         6.0555   -2.2318    2.2160 H         1 <0>         0.0824
     46 H11         6.6103   -3.3894    0.0471 H         1 <0>         0.0854
     47 H12         4.9054   -3.5866    0.5284 H         1 <0>         0.0785
     48 H13         3.1630   -1.9749   -0.8298 H         1 <0>         0.0767
     49 H14         4.7575   -0.0990   -2.6369 H         1 <0>         0.0760
     50 H15         3.8110   -1.4983   -3.1977 H         1 <0>         0.0795
     51 H16         1.4718   -1.3031   -3.4438 H         1 <0>         0.0370
     52 H17         1.4566   -1.4300   -1.6676 H         1 <0>         0.0797
     53 H18        -0.6667   -0.4564   -2.5668 H         1 <0>         0.0880
     54 H19         0.1981    0.6791   -1.5020 H         1 <0>         0.0798
     55 H20         1.4376    2.6222   -4.3362 H         1 <0>         0.0916
     56 H21         1.4547    2.5176   -2.5587 H         1 <0>         0.0626
     57 H22         3.5906    1.6921   -3.4620 H         1 <0>         0.0800
     58 H23         2.7251    0.5304   -4.4976 H         1 <0>         0.0391
     59 H24         7.9422   -2.7547   -1.6033 H         1 <0>         0.1313
     60 H25         6.9924   -4.2560   -1.7144 H         1 <0>         0.1161
     61 H26         5.4996   -4.9484   -3.0572 H         1 <0>         0.1448
     62 H27         7.9367   -6.2684   -7.1423 H         1 <0>         0.1625
     63 H28        10.0564   -2.4903   -5.6183 H         1 <0>         0.1543
     64 H29         8.3775   -2.3093   -6.1794 H         1 <0>         0.1072
@<TRIPOS>BOND
     1    1    6 ar
     2    1    2 ar
     3    1   36 1
     4    2    3 ar
     5    2   37 1
     6    3    4 ar
     7    3   38 1
     8    4    5 ar
     9    4    7 1
    10    5    6 ar
    11    5   39 1
    12    6   40 1
    13    7   12 1
    14    7    8 1
    15    7   41 1
    16    8    9 1
    17    8   42 1
    18    8   43 1
    19    9   10 1
    20    9   44 1
    21    9   45 1
    22   10   11 1
    23   10   46 1
    24   10   47 1
    25   11   12 1
    26   11   20 am
    27   12   13 1
    28   12   48 1
    29   13   14 1
    30   13   49 1
    31   13   50 1
    32   14   19 1
    33   14   15 1
    34   15   16 1
    35   15   51 1
    36   15   52 1
    37   16   17 1
    38   16   53 1
    39   16   54 1
    40   17   18 1
    41   18   19 1
    42   18   55 1
    43   18   56 1
    44   19   57 1
    45   19   58 1
    46   20   21 2
    47   20   22 1
    48   22   23 1
    49   22   59 1
    50   22   60 1
    51   23   32 am
    52   23   24 1
    53   24   29 ar
    54   24   25 ar
    55   25   26 ar
    56   25   61 1
    57   26   27 ar
    58   26   35 1
    59   27   28 ar
    60   27   34 1
    61   28   29 ar
    62   28   62 1
    63   29   30 1
    64   30   31 1
    65   31   32 1
    66   31   63 1
    67   31   64 1
    68   32   33 2
@<TRIPOS>MOLECULE
CHEMBL402520
   65    69     0     0     0
SMALL
USER_CHARGES

@<TRIPOS>ATOM
      1 C1          0.4748    1.5652    0.5381 C.ar      1 <0>        -0.1057
      2 C2          1.7398    2.1136    0.4384 C.ar      1 <0>        -0.1100
      3 C3          2.8409    1.2900    0.2956 C.ar      1 <0>        -0.1276
      4 C4          2.6770   -0.0819    0.2528 C.ar      1 <0>        -0.1274
      5 C5          1.4121   -0.6303    0.3534 C.ar      1 <0>        -0.1333
      6 C6          0.3109    0.1933    0.4948 C.ar      1 <0>        -0.1118
      7 C7          3.8772   -0.9796    0.0961 C.3       1 <0>        -0.0720
      8 C8          4.0041   -1.8820    1.3256 C.3       1 <0>        -0.1102
      9 C9          5.2415   -2.7712    1.1823 C.3       1 <0>        -0.1412
     10 C10         5.0861   -3.6599   -0.0558 C.3       1 <0>         0.0989
     11 N1          4.8189   -2.8054   -1.2208 N.am      1 <0>        -0.5983
     12 C11         3.7064   -1.8480   -1.1543 C.3       1 <0>         0.1340
     13 C12         3.7182   -0.9606   -2.4006 C.3       1 <0>        -0.0161
     14 N2          2.4910   -0.1541   -2.4391 N.4       1 <0>        -0.3974
     15 C13         1.3303   -1.0364   -2.6219 C.3       1 <0>        -0.0526
     16 C14         0.0531   -0.1937   -2.6615 C.3       1 <0>         0.0309
     17 O1          0.1542    0.7666   -3.7166 O.3       1 <0>        -0.3516
     18 C15         1.2843    1.6350   -3.5957 C.3       1 <0>         0.0365
     19 C16         2.5639    0.7957   -3.5579 C.3       1 <0>        -0.0414
     20 C17         5.5801   -2.8977   -2.3291 C.2       1 <0>         0.5091
     21 O2          5.4192   -2.1158   -3.2421 O.2       1 <0>        -0.5257
     22 C18         6.6312   -3.9726   -2.4340 C.3       1 <0>         0.0862
     23 N3          7.3916   -3.7928   -3.6732 N.am      1 <0>        -0.5349
     24 C19         6.9238   -4.3323   -4.8804 C.ar      1 <0>         0.1167
     25 C20         5.6115   -4.7581   -5.0033 C.ar      1 <0>        -0.1016
     26 C21         5.1696   -5.2884   -6.2025 C.ar      1 <0>        -0.0245
     27 C22         6.0357   -5.3938   -7.2779 C.ar      1 <0>        -0.0206
     28 C23         7.3476   -4.9689   -7.1599 C.ar      1 <0>        -0.0839
     29 C24         7.7952   -4.4371   -5.9632 C.ar      1 <0>         0.1032
     30 O3          9.0804   -4.0120   -5.8310 O.3       1 <0>        -0.2888
     31 C25         9.3030   -2.8979   -4.9626 C.3       1 <0>         0.0530
     32 C26         8.5514   -3.1001   -3.6717 C.2       1 <0>         0.4978
     33 O4          8.9885   -2.6464   -2.6352 O.2       1 <0>        -0.4936
     34 Cl1         5.4743   -6.0617   -8.7787 Cl        1 <0>        -0.0223
     35 Cl2         3.5255   -5.8234   -6.3592 Cl        1 <0>        -0.0328
     36 H1         -0.3849    2.2084    0.6542 H         1 <0>         0.1400
     37 H2          1.8679    3.1854    0.4719 H         1 <0>         0.1403
     38 H3          3.8291    1.7185    0.2170 H         1 <0>         0.1370
     39 H4          1.2840   -1.7022    0.3196 H         1 <0>         0.1349
     40 H5         -0.6774   -0.2352    0.5730 H         1 <0>         0.1411
     41 H6          4.7761   -0.3712   -0.0036 H         1 <0>         0.0994
     42 H7          4.1011   -1.2661    2.2196 H         1 <0>         0.0839
     43 H8          3.1154   -2.5074    1.4103 H         1 <0>         0.0751
     44 H9          6.1278   -2.1463    1.0727 H         1 <0>         0.0773
     45 H10         5.3444   -3.3971    2.0688 H         1 <0>         0.0957
     46 H11         6.0049   -4.2232   -0.2189 H         1 <0>         0.0995
     47 H12         4.2540   -4.3485    0.0908 H         1 <0>         0.0884
     48 H13         2.7617   -2.3889   -1.0973 H         1 <0>         0.0983
     49 H14         4.5855   -0.3012   -2.3689 H         1 <0>         0.1359
     50 H15         3.7699   -1.5863   -3.2917 H         1 <0>         0.1713
     51 H16         1.4338   -1.5841   -3.5586 H         1 <0>         0.1405
     52 H17         1.2753   -1.7414   -1.7924 H         1 <0>         0.1339
     53 H18        -0.8051   -0.8417   -2.8400 H         1 <0>         0.1414
     54 H19        -0.0718    0.3229   -1.7098 H         1 <0>         0.0815
     55 H20         1.3173    2.3106   -4.4505 H         1 <0>         0.1434
     56 H21         1.2016    2.2142   -2.6761 H         1 <0>         0.0763
     57 H22         3.4246    1.4509   -3.4232 H         1 <0>         0.1378
     58 H23         2.6669    0.2474   -4.4943 H         1 <0>         0.1398
     59 H24         7.3060   -3.9054   -1.5806 H         1 <0>         0.1364
     60 H25         6.1508   -4.9510   -2.4412 H         1 <0>         0.1278
     61 H26         4.9351   -4.6767   -4.1653 H         1 <0>         0.1408
     62 H27         8.0209   -5.0522   -8.0003 H         1 <0>         0.1654
     63 H28        10.3691   -2.8081   -4.7537 H         1 <0>         0.1572
     64 H29         8.9502   -1.9861   -5.4445 H         1 <0>         0.1083
     65 H30         2.3948    0.3536   -1.5725 H         1 <0>         0.4101
@<TRIPOS>BOND
     1    1    6 ar
     2    1    2 ar
     3    1   36 1
     4    2    3 ar
     5    2   37 1
     6    3    4 ar
     7    3   38 1
     8    4    5 ar
     9    4    7 1
    10    5    6 ar
    11    5   39 1
    12    6   40 1
    13    7   12 1
    14    7    8 1
    15    7   41 1
    16    8    9 1
    17    8   42 1
    18    8   43 1
    19    9   10 1
    20    9   44 1
    21    9   45 1
    22   10   11 1
    23   10   46 1
    24   10   47 1
    25   11   12 1
    26   11   20 am
    27   12   13 1
    28   12   48 1
    29   13   14 1
    30   13   49 1
    31   13   50 1
    32   14   19 1
    33   14   15 1
    34   14   65 1
    35   15   16 1
    36   15   51 1
    37   15   52 1
    38   16   17 1
    39   16   53 1
    40   16   54 1
    41   17   18 1
    42   18   19 1
    43   18   55 1
    44   18   56 1
    45   19   57 1
    46   19   58 1
    47   20   21 2
    48   20   22 1
    49   22   23 1
    50   22   59 1
    51   22   60 1
    52   23   32 am
    53   23   24 1
    54   24   29 ar
    55   24   25 ar
    56   25   26 ar
    57   25   61 1
    58   26   27 ar
    59   26   35 1
    60   27   28 ar
    61   27   34 1
    62   28   29 ar
    63   28   62 1
    64   29   30 1
    65   30   31 1
    66   31   32 1
    67   31   63 1
    68   31   64 1
    69   32   33 2
@<TRIPOS>MOLECULE
CHEMBL402520
   64    68     0     0     0
SMALL
USER_CHARGES

@<TRIPOS>ATOM
      1 C1         -0.0969    1.4498   -0.5285 C.ar      1 <0>        -0.1195
      2 C2         -0.0558    0.1995    0.0597 C.ar      1 <0>        -0.1195
      3 C3          1.1496   -0.4652    0.1869 C.ar      1 <0>        -0.1143
      4 C4          2.3138    0.1203   -0.2745 C.ar      1 <0>        -0.0793
      5 C5          2.2725    1.3702   -0.8635 C.ar      1 <0>        -0.1122
      6 C6          1.0673    2.0354   -0.9895 C.ar      1 <0>        -0.1163
      7 C7          3.6280   -0.6039   -0.1350 C.3       1 <0>        -0.0552
      8 C8          3.6990   -1.2731    1.2395 C.3       1 <0>        -0.1142
      9 C9          5.0468   -1.9813    1.3950 C.3       1 <0>        -0.1366
     10 C10         5.1755   -3.0667    0.3216 C.3       1 <0>         0.1039
     11 N1          4.9639   -2.4549   -0.9974 N.am      1 <0>        -0.5870
     12 C11         3.7406   -1.6737   -1.2257 C.3       1 <0>         0.1594
     13 C12         2.5230   -2.5981   -1.1652 C.3       1 <0>         0.0397
     14 N2          2.6733   -3.6715   -2.1567 N.3       1 <0>        -0.5272
     15 C13         2.6293   -3.1351   -3.5247 C.3       1 <0>         0.0125
     16 C14         2.8489   -4.2759   -4.5218 C.3       1 <0>         0.0683
     17 O1          1.8622   -5.2883   -4.3052 O.3       1 <0>        -0.3804
     18 C15         1.8773   -5.8333   -2.9830 C.3       1 <0>         0.0652
     19 C16         1.6478   -4.7083   -1.9704 C.3       1 <0>         0.0188
     20 C17         5.8748   -2.6070   -1.9790 C.2       1 <0>         0.5096
     21 O2          5.6885   -2.0969   -3.0635 O.2       1 <0>        -0.5254
     22 C18         7.1248   -3.4108   -1.7291 C.3       1 <0>         0.0874
     23 N3          7.9463   -3.4259   -2.9420 N.am      1 <0>        -0.5318
     24 C19         7.7734   -4.4294   -3.9067 C.ar      1 <0>         0.1242
     25 C20         6.6395   -5.2247   -3.9045 C.ar      1 <0>        -0.1009
     26 C21         6.4882   -6.2100   -4.8642 C.ar      1 <0>        -0.0219
     27 C22         7.4669   -6.4015   -5.8250 C.ar      1 <0>        -0.0250
     28 C23         8.6013   -5.6085   -5.8316 C.ar      1 <0>        -0.0866
     29 C24         8.7579   -4.6212   -4.8746 C.ar      1 <0>         0.0970
     30 O3          9.8649   -3.8310   -4.8683 O.3       1 <0>        -0.2926
     31 C25         9.6912   -2.4842   -4.4204 C.3       1 <0>         0.0527
     32 C26         8.8781   -2.4705   -3.1512 C.2       1 <0>         0.4980
     33 O4          9.0629   -1.6075   -2.3190 O.2       1 <0>        -0.4962
     34 Cl1         7.2707   -7.6407   -7.0249 Cl        1 <0>        -0.0319
     35 Cl2         5.0683   -7.2089   -4.8634 Cl        1 <0>        -0.0290
     36 H1         -1.0393    1.9671   -0.6319 H         1 <0>         0.1217
     37 H2         -0.9653   -0.2579    0.4202 H         1 <0>         0.1217
     38 H3          1.1819   -1.4417    0.6471 H         1 <0>         0.1216
     39 H4          3.1821    1.8277   -1.2237 H         1 <0>         0.1210
     40 H5          1.0351    3.0121   -1.4493 H         1 <0>         0.1227
     41 H6          4.4478    0.1072   -0.2368 H         1 <0>         0.0866
     42 H7          3.5944   -0.5168    2.0175 H         1 <0>         0.0721
     43 H8          2.8934   -2.0015    1.3309 H         1 <0>         0.0697
     44 H9          5.8536   -1.2575    1.2791 H         1 <0>         0.0708
     45 H10         5.1061   -2.4378    2.3830 H         1 <0>         0.0814
     46 H11         6.1718   -3.5068    0.3646 H         1 <0>         0.0823
     47 H12         4.4250   -3.8388    0.4909 H         1 <0>         0.0773
     48 H13         3.7901   -1.1947   -2.2036 H         1 <0>         0.1015
     49 H14         2.4457   -3.0324   -0.1684 H         1 <0>         0.0809
     50 H15         1.6212   -2.0259   -1.3831 H         1 <0>         0.0564
     51 H16         1.6569   -2.6765   -3.7047 H         1 <0>         0.0386
     52 H17         3.4132   -2.3879   -3.6481 H         1 <0>         0.0969
     53 H18         2.7603   -3.8929   -5.5384 H         1 <0>         0.0933
     54 H19         3.8428   -4.6995   -4.3771 H         1 <0>         0.0588
     55 H20         1.0859   -6.5767   -2.8868 H         1 <0>         0.0950
     56 H21         2.8429   -6.3021   -2.7936 H         1 <0>         0.0572
     57 H22         1.7152   -5.1094   -0.9591 H         1 <0>         0.0829
     58 H23         0.6597   -4.2749   -2.1255 H         1 <0>         0.0421
     59 H24         7.6897   -2.9598   -0.9133 H         1 <0>         0.1255
     60 H25         6.8527   -4.4319   -1.4618 H         1 <0>         0.1175
     61 H26         5.8757   -5.0766   -3.1555 H         1 <0>         0.1492
     62 H27         9.3629   -5.7600   -6.5822 H         1 <0>         0.1614
     63 H28        10.6667   -2.0353   -4.2335 H         1 <0>         0.1532
     64 H29         9.1695   -1.9113   -5.1871 H         1 <0>         0.1069
@<TRIPOS>BOND
     1    1    6 ar
     2    1    2 ar
     3    1   36 1
     4    2    3 ar
     5    2   37 1
     6    3    4 ar
     7    3   38 1
     8    4    5 ar
     9    4    7 1
    10    5    6 ar
    11    5   39 1
    12    6   40 1
    13    7   12 1
    14    7    8 1
    15    7   41 1
    16    8    9 1
    17    8   42 1
    18    8   43 1
    19    9   10 1
    20    9   44 1
    21    9   45 1
    22   10   11 1
    23   10   46 1
    24   10   47 1
    25   11   12 1
    26   11   20 am
    27   12   13 1
    28   12   48 1
    29   13   14 1
    30   13   49 1
    31   13   50 1
    32   14   19 1
    33   14   15 1
    34   15   16 1
    35   15   51 1
    36   15   52 1
    37   16   17 1
    38   16   53 1
    39   16   54 1
    40   17   18 1
    41   18   19 1
    42   18   55 1
    43   18   56 1
    44   19   57 1
    45   19   58 1
    46   20   21 2
    47   20   22 1
    48   22   23 1
    49   22   59 1
    50   22   60 1
    51   23   32 am
    52   23   24 1
    53   24   29 ar
    54   24   25 ar
    55   25   26 ar
    56   25   61 1
    57   26   27 ar
    58   26   35 1
    59   27   28 ar
    60   27   34 1
    61   28   29 ar
    62   28   62 1
    63   29   30 1
    64   30   31 1
    65   31   32 1
    66   31   63 1
    67   31   64 1
    68   32   33 2
@<TRIPOS>MOLECULE
CHEMBL402520
   65    69     0     0     0
SMALL
USER_CHARGES

@<TRIPOS>ATOM
      1 C1         -0.0981    1.4506   -0.5390 C.ar      1 <0>        -0.1091
      2 C2         -0.0575    0.2018    0.0523 C.ar      1 <0>        -0.1134
      3 C3          1.1478   -0.4625    0.1822 C.ar      1 <0>        -0.1327
      4 C4          2.3124    0.1218   -0.2796 C.ar      1 <0>        -0.0994
      5 C5          2.2716    1.3702   -0.8717 C.ar      1 <0>        -0.1062
      6 C6          1.0665    2.0352   -1.0004 C.ar      1 <0>        -0.1074
      7 C7          3.6264   -0.6020   -0.1370 C.3       1 <0>        -0.0449
      8 C8          3.6957   -1.2688    1.2388 C.3       1 <0>        -0.1198
      9 C9          5.0433   -1.9766    1.3972 C.3       1 <0>        -0.1407
     10 C10         5.1736   -3.0638    0.3259 C.3       1 <0>         0.0917
     11 N1          4.9637   -2.4544   -0.9944 N.am      1 <0>        -0.6248
     12 C11         3.7406   -1.6737   -1.2257 C.3       1 <0>         0.1277
     13 C12         2.5230   -2.5981   -1.1652 C.3       1 <0>        -0.0316
     14 N2          2.6733   -3.6715   -2.1567 N.4       1 <0>        -0.3833
     15 C13         2.6563   -3.0958   -3.5085 C.3       1 <0>        -0.0562
     16 C14         2.8133   -4.2162   -4.5396 C.3       1 <0>         0.0401
     17 O1          1.7633   -5.1711   -4.3620 O.3       1 <0>        -0.3482
     18 C15         1.7236   -5.7432   -3.0517 C.3       1 <0>         0.0347
     19 C16         1.5645   -4.6257   -2.0178 C.3       1 <0>        -0.0459
     20 C17         5.8758   -2.6081   -1.9746 C.2       1 <0>         0.4957
     21 O2          5.6909   -2.1000   -3.0602 O.2       1 <0>        -0.5074
     22 C18         7.1256   -3.4114   -1.7216 C.3       1 <0>         0.0865
     23 N3          7.9487   -3.4285   -2.9334 N.am      1 <0>        -0.5368
     24 C19         7.7772   -4.4337   -3.8965 C.ar      1 <0>         0.1212
     25 C20         6.6434   -5.2292   -3.8944 C.ar      1 <0>        -0.1138
     26 C21         6.4934   -6.2161   -4.8526 C.ar      1 <0>        -0.0271
     27 C22         7.4734   -6.4092   -5.8118 C.ar      1 <0>        -0.0193
     28 C23         8.6077   -5.6161   -5.8182 C.ar      1 <0>        -0.0798
     29 C24         8.7629   -4.6271   -4.8628 C.ar      1 <0>         0.1071
     30 O3          9.8699   -3.8369   -4.8564 O.3       1 <0>        -0.2876
     31 C25         9.6955   -2.4893   -4.4111 C.3       1 <0>         0.0524
     32 C26         8.8807   -2.4734   -3.1430 C.2       1 <0>         0.4990
     33 O4          9.0644   -1.6090   -2.3121 O.2       1 <0>        -0.4869
     34 Cl1         7.2789   -7.6505   -7.0097 Cl        1 <0>        -0.0184
     35 Cl2         5.0736   -7.2151   -4.8520 Cl        1 <0>        -0.0347
     36 H1         -1.0404    1.9677   -0.6446 H         1 <0>         0.1287
     37 H2         -0.9673   -0.2547    0.4131 H         1 <0>         0.1274
     38 H3          1.1796   -1.4379    0.6449 H         1 <0>         0.1203
     39 H4          3.1815    1.8269   -1.2322 H         1 <0>         0.1254
     40 H5          1.0347    3.0107   -1.4627 H         1 <0>         0.1295
     41 H6          4.4463    0.1090   -0.2390 H         1 <0>         0.1044
     42 H7          3.5900   -0.5111    2.0152 H         1 <0>         0.0876
     43 H8          2.8900   -1.9971    1.3303 H         1 <0>         0.0683
     44 H9          5.8502   -1.2530    1.2812 H         1 <0>         0.0812
     45 H10         5.1013   -2.4314    2.3861 H         1 <0>         0.0933
     46 H11         6.1698   -3.5038    0.3710 H         1 <0>         0.1001
     47 H12         4.4230   -3.8358    0.4956 H         1 <0>         0.0765
     48 H13         3.7914   -1.1964   -2.2043 H         1 <0>         0.1267
     49 H14         2.4457   -3.0324   -0.1684 H         1 <0>         0.1391
     50 H15         1.6212   -2.0259   -1.3831 H         1 <0>         0.1528
     51 H16         1.7097   -2.5808   -3.6724 H         1 <0>         0.1426
     52 H17         3.4785   -2.3879   -3.6126 H         1 <0>         0.1490
     53 H18         2.7578   -3.7967   -5.5442 H         1 <0>         0.1439
     54 H19         3.7775   -4.7054   -4.4016 H         1 <0>         0.0750
     55 H20         0.8794   -6.4289   -2.9794 H         1 <0>         0.1447
     56 H21         2.6505   -6.2847   -2.8627 H         1 <0>         0.0771
     57 H22         1.5763   -5.0534   -1.0153 H         1 <0>         0.1422
     58 H23         0.6184   -4.1101   -2.1823 H         1 <0>         0.1434
     59 H24         7.6894   -2.9589   -0.9058 H         1 <0>         0.1374
     60 H25         6.8533   -4.4320   -1.4528 H         1 <0>         0.1225
     61 H26         5.8785   -5.0798   -3.1467 H         1 <0>         0.1302
     62 H27         9.3703   -5.7689   -6.5676 H         1 <0>         0.1674
     63 H28        10.6707   -2.0399   -4.2237 H         1 <0>         0.1589
     64 H29         9.1748   -1.9177   -5.1795 H         1 <0>         0.1111
     65 H30         3.5492   -4.1491   -2.0053 H         1 <0>         0.4123
@<TRIPOS>BOND
     1    1    6 ar
     2    1    2 ar
     3    1   36 1
     4    2    3 ar
     5    2   37 1
     6    3    4 ar
     7    3   38 1
     8    4    5 ar
     9    4    7 1
    10    5    6 ar
    11    5   39 1
    12    6   40 1
    13    7   12 1
    14    7    8 1
    15    7   41 1
    16    8    9 1
    17    8   42 1
    18    8   43 1
    19    9   10 1
    20    9   44 1
    21    9   45 1
    22   10   11 1
    23   10   46 1
    24   10   47 1
    25   11   12 1
    26   11   20 am
    27   12   13 1
    28   12   48 1
    29   13   14 1
    30   13   49 1
    31   13   50 1
    32   14   19 1
    33   14   15 1
    34   14   65 1
    35   15   16 1
    36   15   51 1
    37   15   52 1
    38   16   17 1
    39   16   53 1
    40   16   54 1
    41   17   18 1
    42   18   19 1
    43   18   55 1
    44   18   56 1
    45   19   57 1
    46   19   58 1
    47   20   21 2
    48   20   22 1
    49   22   23 1
    50   22   59 1
    51   22   60 1
    52   23   32 am
    53   23   24 1
    54   24   29 ar
    55   24   25 ar
    56   25   26 ar
    57   25   61 1
    58   26   27 ar
    59   26   35 1
    60   27   28 ar
    61   27   34 1
    62   28   29 ar
    63   28   62 1
    64   29   30 1
    65   30   31 1
    66   31   32 1
    67   31   63 1
    68   31   64 1
    69   32   33 2
@<TRIPOS>MOLECULE
CHEMBL1089299
   86    89     0     0     0
SMALL
USER_CHARGES

@<TRIPOS>ATOM
      1 C1         -0.7237    0.1324   -2.2729 C.3       1 <0>        -0.1396
      2 C2         -0.3849   -1.2186   -1.6396 C.3       1 <0>         0.2444
      3 O1          0.5945   -1.9118   -2.4427 O.3       1 <0>        -0.3517
      4 C3          1.1842   -2.8499   -1.5100 C.3       1 <0>         0.0568
      5 H1          0.5594   -3.7373   -1.4084 H         1 <0>         0.0982
      6 C4          1.2157   -2.0494   -0.1895 C.3       1 <0>         0.0590
      7 H2          2.1992   -1.6037   -0.0404 H         1 <0>         0.1003
      8 O2          0.2208   -1.0224   -0.3504 O.3       1 <0>        -0.3481
      9 C5          0.8600   -2.9564    0.9903 C.3       1 <0>         0.0940
     10 H3         -0.1748   -3.2856    0.8964 H         1 <0>         0.0873
     11 C6          1.0323   -2.1823    2.2987 C.3       1 <0>        -0.0697
     12 H4          2.0417   -1.7741    2.3491 H         1 <0>         0.0992
     13 C7          0.8035   -3.1243    3.4825 C.3       1 <0>         0.1243
     14 N1          1.0766   -2.4120    4.7332 N.am      1 <0>        -0.7220
     15 C8          0.9401   -3.0472    5.9140 C.2       1 <0>         0.5613
     16 O3          0.5904   -4.2111    5.9413 O.2       1 <0>        -0.5348
     17 C9          1.2157   -2.3285    7.1763 C.ar      1 <0>        -0.1378
     18 C10         1.6118   -0.9904    7.1488 C.ar      1 <0>        -0.0858
     19 C11         1.8670   -0.3253    8.3302 C.ar      1 <0>        -0.1268
     20 C12         1.7314   -0.9820    9.5405 C.ar      1 <0>        -0.0922
     21 C13         1.3395   -2.3085    9.5747 C.ar      1 <0>        -0.1271
     22 C14         1.0753   -2.9833    8.4008 C.ar      1 <0>        -0.0592
     23 C15         0.0319   -1.0566    2.3518 C.ar      1 <0>        -0.0561
     24 C16        -1.3218   -1.3341    2.3082 C.ar      1 <0>        -0.0917
     25 C17        -2.2433   -0.3049    2.3571 C.ar      1 <0>        -0.0939
     26 C18        -1.8118    1.0084    2.4496 C.ar      1 <0>         0.0336
     27 C19        -0.4482    1.2880    2.4936 C.ar      1 <0>         0.0388
     28 C20         0.4696    0.2510    2.4499 C.ar      1 <0>        -0.0847
     29 O4         -0.2828    2.6399    2.5834 O.3       1 <0>        -0.3094
     30 C21        -1.5433    3.2090    2.1828 C.3       1 <0>         0.2142
     31 O5         -2.5007    2.1851    2.5120 O.3       1 <0>        -0.3098
     32 O6          1.7237   -4.0949    0.9931 O.3       1 <0>        -0.3852
     33 C22         1.0638   -5.3243    1.3016 C.3       1 <0>         0.2035
     34 O7          0.3116   -5.7589    0.1670 O.3       1 <0>        -0.3973
     35 C23         1.1079   -6.3247   -0.8761 C.3       1 <0>         0.0223
     36 C24         2.5988   -3.2334   -1.9491 C.3       1 <0>         0.0873
     37 O8          2.5361   -3.9530   -3.1821 O.3       1 <0>        -0.6023
     38 Si1         3.9794   -4.5091   -3.6997 Si        1 <0>         1.1371
     39 C25         5.1840   -3.0930   -3.8188 C.3       1 <0>        -0.4836
     40 C26         4.6257   -5.7746   -2.4949 C.3       1 <0>        -0.4905
     41 C27         3.7769   -5.2949   -5.3767 C.3       1 <0>        -0.3690
     42 C28         3.2461   -4.2557   -6.3662 C.3       1 <0>        -0.1224
     43 C29         5.1308   -5.8166   -5.8623 C.3       1 <0>        -0.1266
     44 C30         2.7876   -6.4579   -5.2789 C.3       1 <0>        -0.1217
     45 C31        -1.6507   -2.0671   -1.5025 C.3       1 <0>        -0.1836
     46 H5          0.1886    0.7169   -2.3917 H         1 <0>         0.0698
     47 H6         -1.1818   -0.0285   -3.2487 H         1 <0>         0.0775
     48 H7         -1.4192    0.6711   -1.6293 H         1 <0>         0.0755
     49 H8         -0.2309   -3.4681    3.4785 H         1 <0>         0.0727
     50 H9          1.4716   -3.9815    3.3991 H         1 <0>         0.0809
     51 H10         1.3556   -1.4833    4.7115 H         1 <0>         0.4012
     52 H11         1.7187   -0.4769    6.2047 H         1 <0>         0.1237
     53 H12         2.1736    0.7100    8.3104 H         1 <0>         0.1295
     54 H13         1.9327   -0.4569   10.4625 H         1 <0>         0.1284
     55 H14         1.2359   -2.8154   10.5227 H         1 <0>         0.1311
     56 H15         0.7647   -4.0174    8.4291 H         1 <0>         0.1365
     57 H16        -1.6600   -2.3572    2.2353 H         1 <0>         0.1304
     58 H17        -3.3002   -0.5246    2.3229 H         1 <0>         0.1332
     59 H18         1.5276    0.4646    2.4883 H         1 <0>         0.1311
     60 H19        -1.7482    4.1200    2.7450 H         1 <0>         0.1311
     61 H20        -1.5499    3.4092    1.1114 H         1 <0>         0.0842
     62 H21         1.8057   -6.0807    1.5572 H         1 <0>         0.0996
     63 H22         0.3921   -5.1739    2.1468 H         1 <0>         0.0985
     64 H23         1.8841   -5.6164   -1.1656 H         1 <0>         0.0532
     65 H24         1.5705   -7.2457   -0.5212 H         1 <0>         0.0452
     66 H25         0.4764   -6.5437   -1.7371 H         1 <0>         0.0878
     67 H26         3.1943   -2.3306   -2.0852 H         1 <0>         0.0623
     68 H27         3.0588   -3.8605   -1.1854 H         1 <0>         0.0757
     69 H28         5.3025   -2.6333   -2.8377 H         1 <0>         0.0795
     70 H29         6.1486   -3.4647   -4.1648 H         1 <0>         0.0863
     71 H30         4.8059   -2.3526   -4.5238 H         1 <0>         0.0873
     72 H31         3.9647   -6.6413   -2.4889 H         1 <0>         0.0849
     73 H32         5.6271   -6.0834   -2.7946 H         1 <0>         0.0853
     74 H33         4.6633   -5.3394   -1.4962 H         1 <0>         0.0792
     75 H34         3.9510   -3.4271   -6.4359 H         1 <0>         0.0509
     76 H35         3.1277   -4.7154   -7.3474 H         1 <0>         0.0516
     77 H36         2.2816   -3.8840   -6.0203 H         1 <0>         0.0587
     78 H37         5.5089   -6.5570   -5.1574 H         1 <0>         0.0538
     79 H38         5.0124   -6.2763   -6.8434 H         1 <0>         0.0546
     80 H39         5.8356   -4.9881   -5.9320 H         1 <0>         0.0534
     81 H40         1.8230   -6.0863   -4.9330 H         1 <0>         0.0574
     82 H41         2.6691   -6.9177   -6.2601 H         1 <0>         0.0520
     83 H42         3.1657   -7.1983   -4.5740 H         1 <0>         0.0512
     84 H43        -2.0922   -2.2226   -2.4869 H         1 <0>         0.0759
     85 H44        -1.3960   -3.0311   -1.0622 H         1 <0>         0.0636
     86 H45        -2.3656   -1.5520   -0.8609 H         1 <0>         0.0760
@<TRIPOS>BOND
     1    1    2 1
     2    1   46 1
     3    1   47 1
     4    1   48 1
     5    2    8 1
     6    2    3 1
     7    2   45 1
     8    3    4 1
     9    4    5 1
    10    4    6 1
    11    4   36 1
    12    6    7 1
    13    6    8 1
    14    6    9 1
    15    9   10 1
    16    9   11 1
    17    9   32 1
    18   11   12 1
    19   11   13 1
    20   11   23 1
    21   13   14 1
    22   13   49 1
    23   13   50 1
    24   14   15 am
    25   14   51 1
    26   15   16 2
    27   15   17 1
    28   17   22 ar
    29   17   18 ar
    30   18   19 ar
    31   18   52 1
    32   19   20 ar
    33   19   53 1
    34   20   21 ar
    35   20   54 1
    36   21   22 ar
    37   21   55 1
    38   22   56 1
    39   23   28 ar
    40   23   24 ar
    41   24   25 ar
    42   24   57 1
    43   25   26 ar
    44   25   58 1
    45   26   31 1
    46   26   27 ar
    47   27   28 ar
    48   27   29 1
    49   28   59 1
    50   29   30 1
    51   30   31 1
    52   30   60 1
    53   30   61 1
    54   32   33 1
    55   33   34 1
    56   33   62 1
    57   33   63 1
    58   34   35 1
    59   35   64 1
    60   35   65 1
    61   35   66 1
    62   36   37 1
    63   36   67 1
    64   36   68 1
    65   37   38 1
    66   38   39 1
    67   38   40 1
    68   38   41 1
    69   39   69 1
    70   39   70 1
    71   39   71 1
    72   40   72 1
    73   40   73 1
    74   40   74 1
    75   41   42 1
    76   41   43 1
    77   41   44 1
    78   42   75 1
    79   42   76 1
    80   42   77 1
    81   43   78 1
    82   43   79 1
    83   43   80 1
    84   44   81 1
    85   44   82 1
    86   44   83 1
    87   45   84 1
    88   45   85 1
    89   45   86 1
@<TRIPOS>MOLECULE
CHEMBL91
   40    42     0     0     0
SMALL
USER_CHARGES

@<TRIPOS>ATOM
      1 C1         -0.0167    1.3792    0.0096 C.ar      1 <0>        -0.1007
      2 C2          1.1708    2.0869    0.0021 C.ar      1 <0>        -0.0710
      3 C3          2.3773    1.4131   -0.0135 C.ar      1 <0>        -0.0906
      4 C4          2.3974    0.0294   -0.0212 C.ar      1 <0>        -0.0206
      5 C5          1.2096   -0.6792   -0.0132 C.ar      1 <0>        -0.0973
      6 C6          0.0021   -0.0041    0.0020 C.ar      1 <0>        -0.0177
      7 Cl1        -1.4893   -0.8926    0.0121 Cl        1 <0>        -0.0399
      8 Cl2         3.9130   -0.8168   -0.0414 Cl        1 <0>        -0.0570
      9 C7          3.6714    2.1853   -0.0227 C.3       1 <0>         0.0967
     10 O1          3.3901    3.5863   -0.0128 O.3       1 <0>        -0.3585
     11 C8          4.5556    4.4132   -0.0205 C.3       1 <0>         0.1220
     12 C9          4.9861    4.7010    1.4192 C.3       1 <0>         0.0716
     13 N1          5.4009    3.4525    2.0638 N.pl3     1 <0>        -0.4117
     14 C10         4.5959    2.5906    2.7585 C.2       1 <0>         0.0302
     15 C11         5.3789    1.5784    3.1778 C.2       1 <0>         0.0054
     16 N2          6.6280    1.8158    2.7507 N.pl3     1 <0>        -0.4718
     17 C12         6.6478    2.9340    2.0784 C.cat     1 <0>         0.2862
     18 C13         4.2462    5.7110   -0.7212 C.ar      1 <0>        -0.1000
     19 C14         2.9457    6.1775   -0.7692 C.ar      1 <0>        -0.0580
     20 C15         2.6612    7.3675   -1.4116 C.ar      1 <0>        -0.1019
     21 C16         3.6781    8.0931   -2.0070 C.ar      1 <0>        -0.0089
     22 C17         4.9794    7.6271   -1.9589 C.ar      1 <0>        -0.0983
     23 C18         5.2644    6.4381   -1.3114 C.ar      1 <0>        -0.0131
     24 Cl3         6.8983    5.8554   -1.2454 Cl        1 <0>        -0.0545
     25 Cl4         3.3204    9.5877   -2.8144 Cl        1 <0>        -0.0347
     26 H1         -0.9592    1.9062    0.0260 H         1 <0>         0.1470
     27 H2          1.1557    3.1667    0.0080 H         1 <0>         0.1514
     28 H3          1.2248   -1.7590   -0.0191 H         1 <0>         0.1506
     29 H4          4.2557    1.9258    0.8601 H         1 <0>         0.0625
     30 H5          4.2377    1.9347   -0.9198 H         1 <0>         0.0786
     31 H6          5.3616    3.9002   -0.5451 H         1 <0>         0.0957
     32 H7          5.8203    5.4026    1.4156 H         1 <0>         0.1341
     33 H8          4.1501    5.1334    1.9689 H         1 <0>         0.1404
     34 H9          3.5364    2.7013    2.9365 H         1 <0>         0.2241
     35 H10         5.0575    0.7251    3.7566 H         1 <0>         0.2262
     36 H11         7.5177    3.3735    1.6130 H         1 <0>         0.2599
     37 H12         2.1518    5.6116   -0.3047 H         1 <0>         0.1528
     38 H13         1.6450    7.7312   -1.4494 H         1 <0>         0.1501
     39 H14         5.7734    8.1930   -2.4234 H         1 <0>         0.1537
     40 H15         7.3950    1.2444    2.9128 H         1 <0>         0.4669
@<TRIPOS>BOND
     1    1    6 ar
     2    1    2 ar
     3    1   26 1
     4    2    3 ar
     5    2   27 1
     6    3    4 ar
     7    3    9 1
     8    4    5 ar
     9    4    8 1
    10    5    6 ar
    11    5   28 1
    12    6    7 1
    13    9   10 1
    14    9   29 1
    15    9   30 1
    16   10   11 1
    17   11   12 1
    18   11   18 1
    19   11   31 1
    20   12   13 1
    21   12   32 1
    22   12   33 1
    23   13   17 1
    24   13   14 1
    25   14   15 2
    26   14   34 1
    27   15   16 1
    28   15   35 1
    29   16   17 2
    30   16   40 1
    31   17   36 1
    32   18   23 ar
    33   18   19 ar
    34   19   20 ar
    35   19   37 1
    36   20   21 ar
    37   20   38 1
    38   21   22 ar
    39   21   25 1
    40   22   23 ar
    41   22   39 1
    42   23   24 1
@<TRIPOS>MOLECULE
CHEMBL91
   39    41     0     0     0
SMALL
USER_CHARGES

@<TRIPOS>ATOM
      1 C1         -0.0167    1.3792    0.0096 C.ar      1 <0>        -0.1048
      2 C2          1.1708    2.0869    0.0021 C.ar      1 <0>        -0.0750
      3 C3          2.3773    1.4131   -0.0135 C.ar      1 <0>        -0.0723
      4 C4          2.3974    0.0294   -0.0212 C.ar      1 <0>        -0.0216
      5 C5          1.2096   -0.6792   -0.0132 C.ar      1 <0>        -0.0995
      6 C6          0.0021   -0.0041    0.0020 C.ar      1 <0>        -0.0247
      7 Cl1        -1.4893   -0.8926    0.0121 Cl        1 <0>        -0.0542
      8 Cl2         3.9130   -0.8168   -0.0414 Cl        1 <0>        -0.0471
      9 C7          3.6714    2.1853   -0.0227 C.3       1 <0>         0.0868
     10 O1          3.3901    3.5863   -0.0128 O.3       1 <0>        -0.3671
     11 C8          4.5556    4.4132   -0.0205 C.3       1 <0>         0.1203
     12 C9          4.9861    4.7010    1.4192 C.3       1 <0>         0.0882
     13 N1          5.4009    3.4525    2.0638 N.pl3     1 <0>        -0.4624
     14 C10         4.5960    2.5909    2.7589 C.2       1 <0>        -0.0515
     15 C11         5.3790    1.5786    3.1781 C.2       1 <0>        -0.0235
     16 N2          6.6280    1.8156    2.7505 N.2       1 <0>        -0.4865
     17 C12         6.6477    2.9338    2.0780 C.2       1 <0>         0.1814
     18 C13         4.2462    5.7110   -0.7212 C.ar      1 <0>        -0.0826
     19 C14         2.9457    6.1775   -0.7692 C.ar      1 <0>        -0.0629
     20 C15         2.6612    7.3675   -1.4116 C.ar      1 <0>        -0.1048
     21 C16         3.6781    8.0931   -2.0070 C.ar      1 <0>        -0.0174
     22 C17         4.9794    7.6271   -1.9589 C.ar      1 <0>        -0.1007
     23 C18         5.2644    6.4381   -1.3114 C.ar      1 <0>        -0.0164
     24 Cl3         6.8983    5.8554   -1.2454 Cl        1 <0>        -0.0493
     25 Cl4         3.3204    9.5877   -2.8144 Cl        1 <0>        -0.0490
     26 H1         -0.9592    1.9062    0.0260 H         1 <0>         0.1420
     27 H2          1.1557    3.1667    0.0080 H         1 <0>         0.1492
     28 H3          1.2248   -1.7590   -0.0191 H         1 <0>         0.1470
     29 H4          4.2557    1.9258    0.8601 H         1 <0>         0.0957
     30 H5          4.2377    1.9347   -0.9198 H         1 <0>         0.0696
     31 H6          5.3616    3.9002   -0.5451 H         1 <0>         0.0900
     32 H7          5.8203    5.4026    1.4156 H         1 <0>         0.1070
     33 H8          4.1501    5.1334    1.9689 H         1 <0>         0.1064
     34 H9          3.5366    2.7018    2.9373 H         1 <0>         0.1730
     35 H10         5.0576    0.7254    3.7570 H         1 <0>         0.1693
     36 H11         7.5175    3.3730    1.6123 H         1 <0>         0.2021
     37 H12         2.1518    5.6116   -0.3047 H         1 <0>         0.1508
     38 H13         1.6450    7.7312   -1.4494 H         1 <0>         0.1451
     39 H14         5.7734    8.1930   -2.4234 H         1 <0>         0.1494
@<TRIPOS>BOND
     1    1    6 ar
     2    1    2 ar
     3    1   26 1
     4    2    3 ar
     5    2   27 1
     6    3    4 ar
     7    3    9 1
     8    4    5 ar
     9    4    8 1
    10    5    6 ar
    11    5   28 1
    12    6    7 1
    13    9   10 1
    14    9   29 1
    15    9   30 1
    16   10   11 1
    17   11   12 1
    18   11   18 1
    19   11   31 1
    20   12   13 1
    21   12   32 1
    22   12   33 1
    23   13   17 1
    24   13   14 1
    25   14   15 2
    26   14   34 1
    27   15   16 1
    28   15   35 1
    29   16   17 2
    30   17   36 1
    31   18   23 ar
    32   18   19 ar
    33   19   20 ar
    34   19   37 1
    35   20   21 ar
    36   20   38 1
    37   21   22 ar
    38   21   25 1
    39   22   23 ar
    40   22   39 1
    41   23   24 1
@<TRIPOS>MOLECULE
CHEMBL91
   40    42     0     0     0
SMALL
USER_CHARGES

@<TRIPOS>ATOM
      1 C1         -0.0167    1.3792    0.0096 C.ar      1 <0>        -0.1004
      2 C2          1.1708    2.0869    0.0021 C.ar      1 <0>        -0.0703
      3 C3          2.3773    1.4131   -0.0135 C.ar      1 <0>        -0.0961
      4 C4          2.3974    0.0294   -0.0212 C.ar      1 <0>        -0.0232
      5 C5          1.2096   -0.6792   -0.0132 C.ar      1 <0>        -0.0971
      6 C6          0.0021   -0.0041    0.0020 C.ar      1 <0>        -0.0168
      7 Cl1        -1.4893   -0.8926    0.0121 Cl        1 <0>        -0.0380
      8 Cl2         3.9130   -0.8168   -0.0414 Cl        1 <0>        -0.0546
      9 C7          3.6714    2.1853   -0.0227 C.3       1 <0>         0.1018
     10 O1          3.3901    3.5863   -0.0128 O.3       1 <0>        -0.3602
     11 C8          4.5556    4.4132   -0.0205 C.3       1 <0>         0.1211
     12 C9          4.9569    4.7156   -1.4656 C.3       1 <0>         0.0723
     13 N1          5.3585    3.4737   -2.1309 N.pl3     1 <0>        -0.4122
     14 C10         6.6206    2.9454   -2.1716 C.2       1 <0>         0.0243
     15 C11         6.5424    1.8038   -2.8816 C.2       1 <0>         0.0093
     16 N2          5.2674    1.6394   -3.2640 N.pl3     1 <0>        -0.4746
     17 C12         4.5515    2.6333   -2.8137 C.cat     1 <0>         0.2904
     18 C13         4.2606    5.7038    0.6995 C.ar      1 <0>        -0.1005
     19 C14         2.9600    6.1639    0.7884 C.ar      1 <0>        -0.0587
     20 C15         2.6886    7.3473    1.4484 C.ar      1 <0>        -0.1027
     21 C16         3.7188    8.0723    2.0212 C.ar      1 <0>        -0.0086
     22 C17         5.0201    7.6123    1.9331 C.ar      1 <0>        -0.0985
     23 C18         5.2906    6.4250    1.2763 C.ar      1 <0>        -0.0132
     24 Cl3         6.9229    5.8437    1.1703 Cl        1 <0>        -0.0508
     25 Cl4         3.3778    9.5592    2.8499 Cl        1 <0>        -0.0349
     26 H1         -0.9592    1.9062    0.0260 H         1 <0>         0.1480
     27 H2          1.1557    3.1667    0.0080 H         1 <0>         0.1529
     28 H3          1.2248   -1.7590   -0.0191 H         1 <0>         0.1512
     29 H4          4.2557    1.9258    0.8601 H         1 <0>         0.0836
     30 H5          4.2377    1.9347   -0.9198 H         1 <0>         0.0506
     31 H6          5.3720    3.8950    0.4825 H         1 <0>         0.0990
     32 H7          4.1099    5.1534   -1.9939 H         1 <0>         0.1372
     33 H8          5.7910    5.4172   -1.4718 H         1 <0>         0.1376
     34 H9          7.5085    3.3639   -1.7212 H         1 <0>         0.2241
     35 H10         7.3626    1.1373   -3.1041 H         1 <0>         0.2266
     36 H11         3.4900    2.7635   -2.9643 H         1 <0>         0.2586
     37 H12         2.1557    5.5984    0.3415 H         1 <0>         0.1524
     38 H13         1.6724    7.7066    1.5169 H         1 <0>         0.1499
     39 H14         5.8245    8.1778    2.3799 H         1 <0>         0.1538
     40 H15         4.9299    0.8970   -3.7893 H         1 <0>         0.4666
@<TRIPOS>BOND
     1    1    6 ar
     2    1    2 ar
     3    1   26 1
     4    2    3 ar
     5    2   27 1
     6    3    4 ar
     7    3    9 1
     8    4    5 ar
     9    4    8 1
    10    5    6 ar
    11    5   28 1
    12    6    7 1
    13    9   10 1
    14    9   29 1
    15    9   30 1
    16   10   11 1
    17   11   12 1
    18   11   18 1
    19   11   31 1
    20   12   13 1
    21   12   32 1
    22   12   33 1
    23   13   17 1
    24   13   14 1
    25   14   15 2
    26   14   34 1
    27   15   16 1
    28   15   35 1
    29   16   17 2
    30   16   40 1
    31   17   36 1
    32   18   23 ar
    33   18   19 ar
    34   19   20 ar
    35   19   37 1
    36   20   21 ar
    37   20   38 1
    38   21   22 ar
    39   21   25 1
    40   22   23 ar
    41   22   39 1
    42   23   24 1
@<TRIPOS>MOLECULE
CHEMBL91
   39    41     0     0     0
SMALL
USER_CHARGES

@<TRIPOS>ATOM
      1 C1         -0.0167    1.3792    0.0096 C.ar      1 <0>        -0.1052
      2 C2          1.1708    2.0869    0.0021 C.ar      1 <0>        -0.0748
      3 C3          2.3773    1.4131   -0.0135 C.ar      1 <0>        -0.0740
      4 C4          2.3974    0.0294   -0.0212 C.ar      1 <0>        -0.0187
      5 C5          1.2096   -0.6792   -0.0132 C.ar      1 <0>        -0.0996
      6 C6          0.0021   -0.0041    0.0020 C.ar      1 <0>        -0.0239
      7 Cl1        -1.4893   -0.8926    0.0121 Cl        1 <0>        -0.0543
      8 Cl2         3.9130   -0.8168   -0.0414 Cl        1 <0>        -0.0473
      9 C7          3.6714    2.1853   -0.0227 C.3       1 <0>         0.0894
     10 O1          3.3901    3.5863   -0.0128 O.3       1 <0>        -0.3675
     11 C8          4.5556    4.4132   -0.0205 C.3       1 <0>         0.1203
     12 C9          4.9569    4.7156   -1.4656 C.3       1 <0>         0.0880
     13 N1          5.3585    3.4737   -2.1309 N.pl3     1 <0>        -0.4630
     14 C10         6.6207    2.9457   -2.1720 C.2       1 <0>        -0.0578
     15 C11         6.5425    1.8039   -2.8819 C.2       1 <0>        -0.0235
     16 N2          5.2673    1.6393   -3.2638 N.2       1 <0>        -0.4848
     17 C12         4.5514    2.6330   -2.8133 C.2       1 <0>         0.1858
     18 C13         4.2606    5.7038    0.6995 C.ar      1 <0>        -0.0827
     19 C14         2.9600    6.1639    0.7884 C.ar      1 <0>        -0.0627
     20 C15         2.6886    7.3473    1.4484 C.ar      1 <0>        -0.1047
     21 C16         3.7188    8.0723    2.0212 C.ar      1 <0>        -0.0173
     22 C17         5.0201    7.6123    1.9331 C.ar      1 <0>        -0.1010
     23 C18         5.2906    6.4250    1.2763 C.ar      1 <0>        -0.0164
     24 Cl3         6.9229    5.8437    1.1703 Cl        1 <0>        -0.0500
     25 Cl4         3.3778    9.5592    2.8499 Cl        1 <0>        -0.0491
     26 H1         -0.9592    1.9062    0.0260 H         1 <0>         0.1422
     27 H2          1.1557    3.1667    0.0080 H         1 <0>         0.1496
     28 H3          1.2248   -1.7590   -0.0191 H         1 <0>         0.1469
     29 H4          4.2557    1.9258    0.8601 H         1 <0>         0.0703
     30 H5          4.2377    1.9347   -0.9198 H         1 <0>         0.0923
     31 H6          5.3720    3.8950    0.4825 H         1 <0>         0.0901
     32 H7          4.1099    5.1534   -1.9939 H         1 <0>         0.1081
     33 H8          5.7910    5.4172   -1.4718 H         1 <0>         0.1055
     34 H9          7.5086    3.3644   -1.7220 H         1 <0>         0.1730
     35 H10         7.3627    1.1376   -3.1046 H         1 <0>         0.1698
     36 H11         3.4898    2.7630   -2.9636 H         1 <0>         0.2009
     37 H12         2.1557    5.5984    0.3415 H         1 <0>         0.1516
     38 H13         1.6724    7.7066    1.5169 H         1 <0>         0.1454
     39 H14         5.8245    8.1778    2.3799 H         1 <0>         0.1491
@<TRIPOS>BOND
     1    1    6 ar
     2    1    2 ar
     3    1   26 1
     4    2    3 ar
     5    2   27 1
     6    3    4 ar
     7    3    9 1
     8    4    5 ar
     9    4    8 1
    10    5    6 ar
    11    5   28 1
    12    6    7 1
    13    9   10 1
    14    9   29 1
    15    9   30 1
    16   10   11 1
    17   11   12 1
    18   11   18 1
    19   11   31 1
    20   12   13 1
    21   12   32 1
    22   12   33 1
    23   13   17 1
    24   13   14 1
    25   14   15 2
    26   14   34 1
    27   15   16 1
    28   15   35 1
    29   16   17 2
    30   17   36 1
    31   18   23 ar
    32   18   19 ar
    33   19   20 ar
    34   19   37 1
    35   20   21 ar
    36   20   38 1
    37   21   22 ar
    38   21   25 1
    39   22   23 ar
    40   22   39 1
    41   23   24 1
@<TRIPOS>MOLECULE
CHEMBL408443
   66    69     0     0     0
SMALL
USER_CHARGES

@<TRIPOS>ATOM
      1 C1          0.5606   -1.3442    4.1064 C.3       1 <0>        -0.0984
      2 C2          0.0262   -2.4261    3.2035 C.2       1 <0>         0.0917
      3 C3          0.7758   -3.3440    2.5738 C.2       1 <0>        -0.1899
      4 C4         -0.1401   -4.1944    1.8090 C.ar      1 <0>        -0.1344
      5 C5         -1.4315   -3.6939    2.0530 C.ar      1 <0>         0.1352
      6 N1         -1.2961   -2.6216    2.9090 N.pl3     1 <0>        -0.5852
      7 H1         -2.0285   -2.0848    3.2502 H         1 <0>         0.4221
      8 C6         -2.5282   -4.3052    1.4544 C.ar      1 <0>        -0.1202
      9 C7         -2.3458   -5.3932    0.6296 C.ar      1 <0>        -0.0636
     10 C8         -1.0696   -5.8920    0.3852 C.ar      1 <0>         0.0150
     11 C9          0.0341   -5.2984    0.9702 C.ar      1 <0>         0.1624
     12 F1          1.2726   -5.7828    0.7323 F         1 <0>        -0.1264
     13 O1         -0.9073   -6.9673   -0.4320 O.3       1 <0>        -0.2103
     14 C10        -0.7430   -8.1822    0.1415 C.2       1 <0>         0.4654
     15 C11        -0.4560   -9.3133   -0.6525 C.2       1 <0>        -0.0617
     16 C12        -0.2835   -9.5100   -2.0101 C.2       1 <0>        -0.0784
     17 C13        -0.0165  -10.8698   -2.1947 C.2       1 <0>         0.0530
     18 C14        -0.0302  -11.4691   -0.9707 C.2       1 <0>        -0.0096
     19 N2         -0.2957  -10.5357   -0.0272 N.pl3     1 <0>        -0.2269
     20 N3         -0.4255  -10.5912    1.3677 N.2       1 <0>        -0.3302
     21 C15        -0.6912   -9.5060    2.0417 C.2       1 <0>         0.3307
     22 N4         -0.8441   -8.3218    1.4512 N.2       1 <0>        -0.5950
     23 O2          0.2157  -11.4863   -3.3862 O.3       1 <0>        -0.2814
     24 C16         0.4690  -12.8922   -3.3507 C.3       1 <0>         0.0582
     25 C17         0.7052  -13.4040   -4.7731 C.3       1 <0>         0.0932
     26 H2          0.8102  -14.4888   -4.7562 H         1 <0>         0.1120
     27 C18        -0.4833  -13.0204   -5.6570 C.3       1 <0>        -0.1746
     28 O3          1.8980  -12.8180   -5.2983 O.3       1 <0>        -0.3134
     29 C19         2.5903  -13.5420   -6.1918 C.2       1 <0>         0.4544
     30 O4          2.1966  -14.6369   -6.5172 O.2       1 <0>        -0.4870
     31 C20         3.8587  -12.9891   -6.7890 C.3       1 <0>         0.0355
     32 H3          3.7289  -11.9274   -6.9986 H         1 <0>         0.1818
     33 C21         5.0116  -13.1767   -5.8008 C.3       1 <0>        -0.1413
     34 C22         6.2717  -12.5085   -6.3546 C.3       1 <0>        -0.1008
     35 C23         6.0562  -10.9956   -6.4289 C.3       1 <0>        -0.1669
     36 C24         7.4557  -12.8104   -5.4338 C.3       1 <0>        -0.1556
     37 N5          4.1630  -13.7011   -8.0374 N.4       1 <0>        -0.6236
     38 C25        -0.3677   -8.4585   -3.0863 C.3       1 <0>        -0.0817
     39 H4          0.6026   -1.7139    5.1309 H         1 <0>         0.0831
     40 H5          1.5616   -1.0610    3.7810 H         1 <0>         0.0896
     41 H6         -0.0959   -0.4753    4.0603 H         1 <0>         0.0732
     42 H7          1.8507   -3.4381    2.6216 H         1 <0>         0.1529
     43 H8         -3.5231   -3.9269    1.6368 H         1 <0>         0.1394
     44 H9         -3.2014   -5.8640    0.1683 H         1 <0>         0.1451
     45 H10         0.1425  -12.5187   -0.7839 H         1 <0>         0.1811
     46 H11        -0.7877   -9.5695    3.1155 H         1 <0>         0.2270
     47 H12         1.3528  -13.0869   -2.7432 H         1 <0>         0.0750
     48 H13        -0.3897  -13.4053   -2.9179 H         1 <0>         0.0936
     49 H14        -1.3932  -13.4673   -5.2565 H         1 <0>         0.0877
     50 H15        -0.5884  -11.9356   -5.6739 H         1 <0>         0.0848
     51 H16        -0.3151  -13.3850   -6.6704 H         1 <0>         0.0627
     52 H17         4.7491  -12.7219   -4.8456 H         1 <0>         0.1268
     53 H18         5.1978  -14.2410   -5.6575 H         1 <0>         0.1010
     54 H19         6.4795  -12.8953   -7.3523 H         1 <0>         0.0679
     55 H20         5.8484  -10.6088   -5.4312 H         1 <0>         0.0734
     56 H21         6.9539  -10.5196   -6.8234 H         1 <0>         0.0743
     57 H22         5.2127  -10.7806   -7.0849 H         1 <0>         0.0539
     58 H23         7.6649  -13.8800   -5.4497 H         1 <0>         0.0628
     59 H24         8.3331  -12.2635   -5.7789 H         1 <0>         0.0716
     60 H25         7.2127  -12.5028   -4.4167 H         1 <0>         0.0676
     61 H26         4.3694  -14.6671   -7.8319 H         1 <0>         0.4427
     62 H27         3.3671  -13.6513   -8.6555 H         1 <0>         0.4423
     63 H28         0.6179   -8.0208   -3.2446 H         1 <0>         0.0721
     64 H29        -0.7160   -8.9143   -4.0132 H         1 <0>         0.0730
     65 H30        -1.0660   -7.6798   -2.7796 H         1 <0>         0.0742
     66 H31         4.9616  -13.2738   -8.4821 H         1 <0>         0.4466
@<TRIPOS>BOND
     1    1    2 1
     2    1   39 1
     3    1   40 1
     4    1   41 1
     5    2    6 1
     6    2    3 2
     7    3    4 1
     8    3   42 1
     9    4   11 ar
    10    4    5 ar
    11    5    6 1
    12    5    8 ar
    13    6    7 1
    14    8    9 ar
    15    8   43 1
    16    9   10 ar
    17    9   44 1
    18   10   11 ar
    19   10   13 1
    20   11   12 1
    21   13   14 1
    22   14   22 2
    23   14   15 1
    24   15   19 1
    25   15   16 2
    26   16   17 1
    27   16   38 1
    28   17   18 2
    29   17   23 1
    30   18   19 1
    31   18   45 1
    32   19   20 1
    33   20   21 2
    34   21   22 1
    35   21   46 1
    36   23   24 1
    37   24   25 1
    38   24   47 1
    39   24   48 1
    40   25   26 1
    41   25   27 1
    42   25   28 1
    43   27   49 1
    44   27   50 1
    45   27   51 1
    46   28   29 1
    47   29   30 2
    48   29   31 1
    49   31   32 1
    50   31   33 1
    51   31   37 1
    52   33   34 1
    53   33   52 1
    54   33   53 1
    55   34   35 1
    56   34   36 1
    57   34   54 1
    58   35   55 1
    59   35   56 1
    60   35   57 1
    61   36   58 1
    62   36   59 1
    63   36   60 1
    64   37   61 1
    65   37   62 1
    66   37   66 1
    67   38   63 1
    68   38   64 1
    69   38   65 1
@<TRIPOS>MOLECULE
CHEMBL408443
   65    68     0     0     0
SMALL
USER_CHARGES

@<TRIPOS>ATOM
      1 C1          0.3351   -0.2242    2.2340 C.3       1 <0>        -0.0967
      2 C2         -0.1755   -1.4492    1.5201 C.2       1 <0>         0.0876
      3 C3          0.5963   -2.4219    1.0108 C.2       1 <0>        -0.1878
      4 C4         -0.3017   -3.4122    0.4109 C.ar      1 <0>        -0.1348
      5 C5         -1.6066   -2.9307    0.6183 C.ar      1 <0>         0.1341
      6 N1         -1.4954   -1.7375    1.3001 N.pl3     1 <0>        -0.5864
      7 H1         -2.2410   -1.1840    1.5803 H         1 <0>         0.4207
      8 C6         -2.6912   -3.6667    0.1527 C.ar      1 <0>        -0.1228
      9 C7         -2.4836   -4.8585   -0.5060 C.ar      1 <0>        -0.0623
     10 C8         -1.1940   -5.3390   -0.7135 C.ar      1 <0>         0.0186
     11 C9         -0.1020   -4.6222   -0.2589 C.ar      1 <0>         0.1626
     12 F1          1.1496   -5.0889   -0.4610 F         1 <0>        -0.1247
     13 O1         -1.0068   -6.5179   -1.3659 O.3       1 <0>        -0.2109
     14 C10        -0.7771   -7.6257   -0.6231 C.2       1 <0>         0.4662
     15 C11        -0.4624   -8.8515   -1.2480 C.2       1 <0>        -0.0656
     16 C12        -0.3156   -9.2432   -2.5658 C.2       1 <0>        -0.0786
     17 C13         0.0040  -10.6041   -2.5538 C.2       1 <0>         0.0615
     18 C14         0.0461  -11.0128   -1.2543 C.2       1 <0>        -0.0100
     19 N2         -0.2349   -9.9590   -0.4527 N.pl3     1 <0>        -0.2292
     20 N3         -0.3274   -9.8093    0.9381 N.2       1 <0>        -0.3291
     21 C15        -0.6219   -8.6460    1.4507 C.2       1 <0>         0.3245
     22 N4         -0.8394   -7.5707    0.6954 N.2       1 <0>        -0.5996
     23 O2          0.2322  -11.3834   -3.6467 O.3       1 <0>        -0.2774
     24 C16         0.5455  -12.7573   -3.4099 C.3       1 <0>         0.0624
     25 C17         0.7675  -13.4676   -4.7467 C.3       1 <0>         0.0870
     26 H2          0.9188  -14.5327   -4.5715 H         1 <0>         0.1016
     27 C18        -0.4578  -13.2667   -5.6406 C.3       1 <0>        -0.1694
     28 O3          1.9211  -12.9222   -5.3901 O.3       1 <0>        -0.3352
     29 C19         2.6209  -13.7453   -6.1866 C.2       1 <0>         0.4272
     30 O4          2.2658  -14.8909   -6.3328 O.2       1 <0>        -0.5124
     31 C20         3.8494  -13.2405   -6.8986 C.3       1 <0>         0.1013
     32 H3          3.6697  -12.2280   -7.2601 H         1 <0>         0.1212
     33 C21         5.0336  -13.2335   -5.9298 C.3       1 <0>        -0.1028
     34 C22         6.2630  -12.6526   -6.6312 C.3       1 <0>        -0.0881
     35 C23         6.0182  -11.1763   -6.9502 C.3       1 <0>        -0.1502
     36 C24         7.4813  -12.7811   -5.7147 C.3       1 <0>        -0.1500
     37 N5          4.1524  -14.1198   -8.0357 N.3       1 <0>        -0.8103
     38 C25        -0.4711   -8.3693   -3.7837 C.3       1 <0>        -0.0818
     39 H4          0.4190   -0.4338    3.3004 H         1 <0>         0.0818
     40 H5          1.3144    0.0451    1.8385 H         1 <0>         0.0889
     41 H6         -0.3589    0.6020    2.0796 H         1 <0>         0.0719
     42 H7          1.6751   -2.4664    1.0381 H         1 <0>         0.1526
     43 H8         -3.6964   -3.3037    0.3079 H         1 <0>         0.1381
     44 H9         -3.3298   -5.4258   -0.8646 H         1 <0>         0.1451
     45 H10         0.2676  -12.0151   -0.9186 H         1 <0>         0.1819
     46 H11        -0.6888   -8.5512    2.5245 H         1 <0>         0.2242
     47 H12         1.4516  -12.8247   -2.8077 H         1 <0>         0.0718
     48 H13        -0.2797  -13.2319   -2.8789 H         1 <0>         0.0837
     49 H14        -0.6090  -12.2015   -5.8158 H         1 <0>         0.0787
     50 H15        -0.2996  -13.7727   -6.5930 H         1 <0>         0.0614
     51 H16        -1.3377  -13.6827   -5.1499 H         1 <0>         0.0755
     52 H17         4.7885  -12.6226   -5.0609 H         1 <0>         0.0777
     53 H18         5.2464  -14.2531   -5.6087 H         1 <0>         0.0683
     54 H19         6.4453  -13.1988   -7.5567 H         1 <0>         0.0880
     55 H20         5.8359  -10.6300   -6.0247 H         1 <0>         0.0534
     56 H21         6.8940  -10.7625   -7.4499 H         1 <0>         0.0554
     57 H22         5.1502  -11.0848   -7.6031 H         1 <0>         0.0564
     58 H23         7.2659  -12.3099   -4.7557 H         1 <0>         0.0529
     59 H24         7.7088  -13.8355   -5.5585 H         1 <0>         0.0533
     60 H25         8.3372  -12.2893   -6.1770 H         1 <0>         0.0571
     61 H26         4.3230  -15.0650   -7.7265 H         1 <0>         0.3529
     62 H27         3.4128  -14.0917   -8.7216 H         1 <0>         0.3489
     63 H28         0.4909   -7.9232   -4.0360 H         1 <0>         0.0733
     64 H29        -0.8227   -8.9721   -4.6210 H         1 <0>         0.0749
     65 H30        -1.1938   -7.5805   -3.5750 H         1 <0>         0.0717
@<TRIPOS>BOND
     1    1    2 1
     2    1   39 1
     3    1   40 1
     4    1   41 1
     5    2    6 1
     6    2    3 2
     7    3    4 1
     8    3   42 1
     9    4   11 ar
    10    4    5 ar
    11    5    6 1
    12    5    8 ar
    13    6    7 1
    14    8    9 ar
    15    8   43 1
    16    9   10 ar
    17    9   44 1
    18   10   11 ar
    19   10   13 1
    20   11   12 1
    21   13   14 1
    22   14   22 2
    23   14   15 1
    24   15   19 1
    25   15   16 2
    26   16   17 1
    27   16   38 1
    28   17   18 2
    29   17   23 1
    30   18   19 1
    31   18   45 1
    32   19   20 1
    33   20   21 2
    34   21   22 1
    35   21   46 1
    36   23   24 1
    37   24   25 1
    38   24   47 1
    39   24   48 1
    40   25   26 1
    41   25   27 1
    42   25   28 1
    43   27   49 1
    44   27   50 1
    45   27   51 1
    46   28   29 1
    47   29   30 2
    48   29   31 1
    49   31   32 1
    50   31   33 1
    51   31   37 1
    52   33   34 1
    53   33   52 1
    54   33   53 1
    55   34   35 1
    56   34   36 1
    57   34   54 1
    58   35   55 1
    59   35   56 1
    60   35   57 1
    61   36   58 1
    62   36   59 1
    63   36   60 1
    64   37   61 1
    65   37   62 1
    66   38   63 1
    67   38   64 1
    68   38   65 1
@<TRIPOS>MOLECULE
CHEMBL113227
   38    40     0     0     0
SMALL
USER_CHARGES

@<TRIPOS>ATOM
      1 C1         -0.0167    1.3839    0.0097 C.ar      1 <0>        -0.0907
      2 C2          1.1696    2.0903    0.0021 C.ar      1 <0>        -0.1231
      3 C3          2.3803    1.4130   -0.0131 C.ar      1 <0>         0.1285
      4 C4          2.3996    0.0259   -0.0212 C.ar      1 <0>        -0.1827
      5 C5          1.2137   -0.6813   -0.0141 C.ar      1 <0>        -0.0890
      6 C6          0.0021   -0.0041    0.0020 C.ar      1 <0>         0.0938
      7 N1         -1.2037   -0.7225    0.0101 N.pl3     1 <0>        -0.4074
      8 C7         -1.3394   -2.0865    0.0097 C.2       1 <0>        -0.0569
      9 C8         -2.6606   -2.3471    0.0191 C.2       1 <0>        -0.0208
     10 N2         -3.3178   -1.1780    0.0252 N.2       1 <0>        -0.4847
     11 C9         -2.4560   -0.1976    0.0259 C.2       1 <0>         0.1864
     12 O1          3.5482    2.1089   -0.0205 O.3       1 <0>        -0.3102
     13 C10         4.7572    1.3472   -0.0361 C.3       1 <0>         0.0576
     14 C11         5.9576    2.2958   -0.0425 C.3       1 <0>        -0.1135
     15 C12         7.2520    1.4803   -0.0592 C.3       1 <0>        -0.0796
     16 C13         8.4343    2.4147   -0.0655 C.ar      1 <0>        -0.0396
     17 C14         8.9762    2.8656   -1.2594 C.ar      1 <0>        -0.1704
     18 C15        10.0606    3.7218   -1.2259 C.ar      1 <0>         0.1015
     19 N3         10.5792    4.1089   -0.0769 N.ar      1 <0>        -0.4877
     20 C16        10.0899    3.7003    1.0775 C.ar      1 <0>         0.1015
     21 C17         9.0026    2.8483    1.1225 C.ar      1 <0>        -0.1704
     22 H1         -0.9592    1.9111    0.0260 H         1 <0>         0.1405
     23 H2          1.1551    3.1702    0.0077 H         1 <0>         0.1440
     24 H3          3.3423   -0.5010   -0.0334 H         1 <0>         0.1386
     25 H4          1.2287   -1.7612   -0.0211 H         1 <0>         0.1347
     26 H5         -0.5401   -2.8128    0.0025 H         1 <0>         0.1771
     27 H6         -3.1128   -3.3279    0.0211 H         1 <0>         0.1753
     28 H7         -2.6984    0.8548    0.0347 H         1 <0>         0.2087
     29 H8          4.7991    0.7140    0.8501 H         1 <0>         0.0664
     30 H9          4.7821    0.7236   -0.9298 H         1 <0>         0.0664
     31 H10         5.9156    2.9290   -0.9287 H         1 <0>         0.0788
     32 H11         5.9326    2.9195    0.8511 H         1 <0>         0.0788
     33 H12         7.2940    0.8471    0.8270 H         1 <0>         0.0821
     34 H13         7.2770    0.8567   -0.9529 H         1 <0>         0.0821
     35 H14         8.5565    2.5515   -2.2036 H         1 <0>         0.1351
     36 H15        10.4886    4.0776   -2.1515 H         1 <0>         0.1568
     37 H16        10.5415    4.0385    1.9984 H         1 <0>         0.1568
     38 H17         8.6032    2.5210    2.0711 H         1 <0>         0.1351
@<TRIPOS>BOND
     1    1    6 ar
     2    1    2 ar
     3    1   22 1
     4    2    3 ar
     5    2   23 1
     6    3    4 ar
     7    3   12 1
     8    4    5 ar
     9    4   24 1
    10    5    6 ar
    11    5   25 1
    12    6    7 1
    13    7   11 1
    14    7    8 1
    15    8    9 2
    16    8   26 1
    17    9   10 1
    18    9   27 1
    19   10   11 2
    20   11   28 1
    21   12   13 1
    22   13   14 1
    23   13   29 1
    24   13   30 1
    25   14   15 1
    26   14   31 1
    27   14   32 1
    28   15   16 1
    29   15   33 1
    30   15   34 1
    31   16   21 ar
    32   16   17 ar
    33   17   18 ar
    34   17   35 1
    35   18   19 ar
    36   18   36 1
    37   19   20 ar
    38   20   21 ar
    39   20   37 1
    40   21   38 1
@<TRIPOS>MOLECULE
CHEMBL564408
   64    68     0     0     0
SMALL
USER_CHARGES

@<TRIPOS>ATOM
      1 C1         -0.0184    1.5028    0.0103 C.3       1 <0>        -0.1489
      2 C2          0.0021   -0.0041    0.0020 C.2       1 <0>         0.4532
      3 O1          0.0203   -0.6138    1.0450 O.2       1 <0>        -0.5027
      4 O2          0.0001   -0.6689   -1.1641 O.3       1 <0>        -0.3403
      5 C3          0.0201   -2.0962   -1.0971 C.3       1 <0>         0.0975
      6 H1          0.5479   -2.4036   -0.1943 H         1 <0>         0.1054
      7 C4         -1.4124   -2.6132   -1.0383 C.3       1 <0>         0.1447
      8 H2         -2.0285   -1.8634   -0.5420 H         1 <0>         0.0655
      9 C5         -2.0271   -2.9247   -2.3711 C.2       1 <0>        -0.1859
     10 C6         -1.4030   -2.7367   -3.4908 C.2       1 <0>        -0.0854
     11 C7         -1.7368   -3.0566   -4.9274 C.3       1 <0>        -0.0866
     12 C8         -0.4402   -2.7430   -5.7297 C.3       1 <0>         0.0376
     13 N1          0.6311   -2.8145   -4.7160 N.3       1 <0>        -0.4977
     14 C9         -0.0084   -2.1447   -3.5495 C.3       1 <0>         0.0674
     15 H3         -0.0173   -1.0586   -3.6412 H         1 <0>         0.0934
     16 C10         0.7525   -2.6407   -2.3111 C.3       1 <0>        -0.0225
     17 H4          0.7445   -3.7304   -2.2864 H         1 <0>         0.1251
     18 C11         2.1603   -2.1314   -2.4755 C.ar      1 <0>        -0.0494
     19 C12         2.9288   -1.9379   -1.3326 C.ar      1 <0>        -0.0971
     20 C13         4.2223   -1.4691   -1.4957 C.ar      1 <0>         0.0357
     21 C14         4.7327   -1.2009   -2.7753 C.ar      1 <0>         0.0320
     22 C15         3.9605   -1.3972   -3.9075 C.ar      1 <0>        -0.0949
     23 C16         2.6571   -1.8692   -3.7417 C.ar      1 <0>        -0.0684
     24 C17         1.8493   -2.0660   -5.0051 C.3       1 <0>         0.0902
     25 O3          6.0048   -0.7578   -2.6514 O.3       1 <0>        -0.3051
     26 C18         6.1500   -0.3812   -1.2661 C.3       1 <0>         0.2115
     27 O4          5.1766   -1.1947   -0.5782 O.3       1 <0>        -0.3041
     28 O5         -1.4300   -3.8036   -0.2479 O.3       1 <0>        -0.5982
     29 Si1        -2.8331   -4.0523    0.5456 Si        1 <0>         1.1394
     30 C19        -3.1574   -2.6235    1.6964 C.3       1 <0>        -0.4824
     31 C20        -4.2262   -4.1880   -0.6838 C.3       1 <0>        -0.4907
     32 C21        -2.7183   -5.6294    1.5307 C.3       1 <0>        -0.3693
     33 C22        -1.5742   -5.5179    2.5404 C.3       1 <0>        -0.1228
     34 C23        -4.0345   -5.8627    2.2751 C.3       1 <0>        -0.1269
     35 C24        -2.4520   -6.8028    0.5857 C.3       1 <0>        -0.1216
     36 H5          1.0042    1.8801    0.0026 H         1 <0>         0.1051
     37 H6         -0.5455    1.8639   -0.8728 H         1 <0>         0.0943
     38 H7         -0.5286    1.8543    0.9071 H         1 <0>         0.1044
     39 H8         -3.0310   -3.3221   -2.3982 H         1 <0>         0.1317
     40 H9         -1.9985   -4.1098   -5.0290 H         1 <0>         0.0890
     41 H10        -2.5568   -2.4276   -5.2738 H         1 <0>         0.0854
     42 H11        -0.2815   -3.4904   -6.5071 H         1 <0>         0.0906
     43 H12        -0.4908   -1.7441   -6.1629 H         1 <0>         0.0510
     44 H13         2.5303   -2.1458   -0.3506 H         1 <0>         0.1387
     45 H14         4.3556   -1.1916   -4.8914 H         1 <0>         0.1435
     46 H15         2.4458   -2.6151   -5.7336 H         1 <0>         0.0962
     47 H16         1.5851   -1.0929   -5.4191 H         1 <0>         0.0565
     48 H17         7.1557   -0.6077   -0.9120 H         1 <0>         0.1326
     49 H18         5.9262    0.6771   -1.1324 H         1 <0>         0.0873
     50 H19        -3.2245   -1.7008    1.1200 H         1 <0>         0.0761
     51 H20        -4.0951   -2.7897    2.2267 H         1 <0>         0.0858
     52 H21        -2.3423   -2.5441    2.4157 H         1 <0>         0.0901
     53 H22        -4.0365   -5.0240   -1.3571 H         1 <0>         0.0889
     54 H23        -5.1639   -4.3542   -0.1535 H         1 <0>         0.0853
     55 H24        -4.2934   -3.2653   -1.2601 H         1 <0>         0.0834
     56 H25        -1.7639   -4.6820    3.2137 H         1 <0>         0.0519
     57 H26        -1.5071   -6.4406    3.1168 H         1 <0>         0.0524
     58 H27        -0.6365   -5.3517    2.0101 H         1 <0>         0.0579
     59 H28        -4.8496   -5.9421    1.5558 H         1 <0>         0.0538
     60 H29        -3.9674   -6.7854    2.8515 H         1 <0>         0.0551
     61 H30        -4.2243   -5.0267    2.9484 H         1 <0>         0.0536
     62 H31        -1.5143   -6.6366    0.0554 H         1 <0>         0.0583
     63 H32        -2.3848   -7.7255    1.1620 H         1 <0>         0.0521
     64 H33        -3.2671   -6.8822   -0.1337 H         1 <0>         0.0515
@<TRIPOS>BOND
     1    1    2 1
     2    1   36 1
     3    1   37 1
     4    1   38 1
     5    2    3 2
     6    2    4 1
     7    4    5 1
     8    5    6 1
     9    5   16 1
    10    5    7 1
    11    7    8 1
    12    7    9 1
    13    7   28 1
    14    9   10 2
    15    9   39 1
    16   10   14 1
    17   10   11 1
    18   11   12 1
    19   11   40 1
    20   11   41 1
    21   12   13 1
    22   12   42 1
    23   12   43 1
    24   13   24 1
    25   13   14 1
    26   14   15 1
    27   14   16 1
    28   16   17 1
    29   16   18 1
    30   18   23 ar
    31   18   19 ar
    32   19   20 ar
    33   19   44 1
    34   20   27 1
    35   20   21 ar
    36   21   22 ar
    37   21   25 1
    38   22   23 ar
    39   22   45 1
    40   23   24 1
    41   24   46 1
    42   24   47 1
    43   25   26 1
    44   26   27 1
    45   26   48 1
    46   26   49 1
    47   28   29 1
    48   29   30 1
    49   29   31 1
    50   29   32 1
    51   30   50 1
    52   30   51 1
    53   30   52 1
    54   31   53 1
    55   31   54 1
    56   31   55 1
    57   32   33 1
    58   32   34 1
    59   32   35 1
    60   33   56 1
    61   33   57 1
    62   33   58 1
    63   34   59 1
    64   34   60 1
    65   34   61 1
    66   35   62 1
    67   35   63 1
    68   35   64 1
@<TRIPOS>MOLECULE
CHEMBL564408
   65    69     0     0     0
SMALL
USER_CHARGES

@<TRIPOS>ATOM
      1 C1         -0.0184    1.5028    0.0103 C.3       1 <0>        -0.1498
      2 C2          0.0021   -0.0041    0.0020 C.2       1 <0>         0.4570
      3 O1          0.0203   -0.6138    1.0450 O.2       1 <0>        -0.4903
      4 O2          0.0001   -0.6689   -1.1641 O.3       1 <0>        -0.3493
      5 C3          0.0201   -2.0962   -1.0971 C.3       1 <0>         0.0973
      6 H1          0.5480   -2.4035   -0.1943 H         1 <0>         0.1219
      7 C4         -1.4123   -2.6130   -1.0379 C.3       1 <0>         0.1261
      8 H2         -2.0273   -1.8654   -0.5370 H         1 <0>         0.0824
      9 C5         -2.0302   -2.9184   -2.3708 C.2       1 <0>        -0.1064
     10 C6         -1.4062   -2.7300   -3.4905 C.2       1 <0>        -0.1558
     11 C7         -1.7430   -3.0403   -4.9287 C.3       1 <0>        -0.1027
     12 C8         -0.4447   -2.7289   -5.7300 C.3       1 <0>         0.0034
     13 N1          0.6259   -2.8174   -4.7166 N.4       1 <0>        -0.3937
     14 C9         -0.0089   -2.1455   -3.5490 C.3       1 <0>         0.0577
     15 H3         -0.0136   -1.0595   -3.6419 H         1 <0>         0.1736
     16 C10         0.7528   -2.6406   -2.3111 C.3       1 <0>        -0.0468
     17 H4          0.7475   -3.7303   -2.2861 H         1 <0>         0.1358
     18 C11         2.1578   -2.1227   -2.4796 C.ar      1 <0>        -0.0684
     19 C12         2.9349   -1.9374   -1.3418 C.ar      1 <0>        -0.0883
     20 C13         4.2245   -1.4600   -1.5117 C.ar      1 <0>         0.0653
     21 C14         4.7219   -1.1760   -2.7932 C.ar      1 <0>         0.0509
     22 C15         3.9408   -1.3650   -3.9205 C.ar      1 <0>        -0.0792
     23 C16         2.6416   -1.8458   -3.7478 C.ar      1 <0>        -0.1230
     24 C17         1.8234   -2.0369   -5.0054 C.3       1 <0>         0.0578
     25 O3          5.9926   -0.7270   -2.6762 O.3       1 <0>        -0.2961
     26 C18         6.1478   -0.3633   -1.2886 C.3       1 <0>         0.2097
     27 O4          5.1857   -1.1896   -0.6004 O.3       1 <0>        -0.2947
     28 O5         -1.4288   -3.8069   -0.2529 O.3       1 <0>        -0.6048
     29 Si1        -2.8304   -4.0589    0.5422 Si        1 <0>         1.1266
     30 C19        -3.1522   -2.6352    1.6999 C.3       1 <0>        -0.4752
     31 C20        -4.2259   -4.1888   -0.6852 C.3       1 <0>        -0.4917
     32 C21        -2.7142   -5.6403    1.5200 C.3       1 <0>        -0.3582
     33 C22        -1.5681   -5.5336    2.5280 C.3       1 <0>        -0.1255
     34 C23        -4.0290   -5.8767    2.2658 C.3       1 <0>        -0.1337
     35 C24        -2.4499   -6.8096    0.5692 C.3       1 <0>        -0.1222
     36 H5          1.0042    1.8801    0.0026 H         1 <0>         0.1091
     37 H6         -0.5455    1.8639   -0.8728 H         1 <0>         0.0966
     38 H7         -0.5286    1.8543    0.9071 H         1 <0>         0.1105
     39 H8         -3.0357   -3.3116   -2.3979 H         1 <0>         0.1517
     40 H9         -2.0102   -4.0916   -5.0359 H         1 <0>         0.1115
     41 H10        -2.5599   -2.4051   -5.2711 H         1 <0>         0.1226
     42 H11        -0.2918   -3.4706   -6.5140 H         1 <0>         0.1406
     43 H12        -0.4882   -1.7257   -6.1540 H         1 <0>         0.1384
     44 H13         2.5464   -2.1578   -0.3585 H         1 <0>         0.1497
     45 H14         4.3258   -1.1471   -4.9057 H         1 <0>         0.1554
     46 H15         2.4232   -2.5590   -5.7508 H         1 <0>         0.1422
     47 H16         1.5329   -1.0625   -5.3980 H         1 <0>         0.1423
     48 H17         7.1581   -0.5870   -0.9457 H         1 <0>         0.1440
     49 H18         5.9188    0.6923   -1.1424 H         1 <0>         0.0990
     50 H19        -3.2203   -1.7099    1.1278 H         1 <0>         0.0799
     51 H20        -4.0890   -2.8035    2.2312 H         1 <0>         0.0914
     52 H21        -2.3358   -2.5591    2.4180 H         1 <0>         0.0954
     53 H22        -4.0376   -5.0218   -1.3626 H         1 <0>         0.0909
     54 H23        -5.1626   -4.3572   -0.1539 H         1 <0>         0.0915
     55 H24        -4.2939   -3.2635   -1.2573 H         1 <0>         0.0828
     56 H25        -1.7564   -4.7007    3.2054 H         1 <0>         0.0545
     57 H26        -1.5001   -6.4589    3.1001 H         1 <0>         0.0584
     58 H27        -0.6314   -5.3653    1.9967 H         1 <0>         0.0576
     59 H28        -4.8455   -5.9527    1.5477 H         1 <0>         0.0559
     60 H29        -3.9610   -6.8020    2.8379 H         1 <0>         0.0614
     61 H30        -4.2173   -5.0437    2.9432 H         1 <0>         0.0564
     62 H31        -1.5132   -6.6412    0.0379 H         1 <0>         0.0565
     63 H32        -2.3819   -7.7349    1.1413 H         1 <0>         0.0581
     64 H33        -3.2663   -6.8856   -0.1489 H         1 <0>         0.0527
     65 H34         0.8587   -3.7789   -4.5178 H         1 <0>         0.4335
@<TRIPOS>BOND
     1    1    2 1
     2    1   36 1
     3    1   37 1
     4    1   38 1
     5    2    3 2
     6    2    4 1
     7    4    5 1
     8    5    6 1
     9    5   16 1
    10    5    7 1
    11    7    8 1
    12    7    9 1
    13    7   28 1
    14    9   10 2
    15    9   39 1
    16   10   14 1
    17   10   11 1
    18   11   12 1
    19   11   40 1
    20   11   41 1
    21   12   13 1
    22   12   42 1
    23   12   43 1
    24   13   24 1
    25   13   14 1
    26   13   65 1
    27   14   15 1
    28   14   16 1
    29   16   17 1
    30   16   18 1
    31   18   23 ar
    32   18   19 ar
    33   19   20 ar
    34   19   44 1
    35   20   27 1
    36   20   21 ar
    37   21   22 ar
    38   21   25 1
    39   22   23 ar
    40   22   45 1
    41   23   24 1
    42   24   46 1
    43   24   47 1
    44   25   26 1
    45   26   27 1
    46   26   48 1
    47   26   49 1
    48   28   29 1
    49   29   30 1
    50   29   31 1
    51   29   32 1
    52   30   50 1
    53   30   51 1
    54   30   52 1
    55   31   53 1
    56   31   54 1
    57   31   55 1
    58   32   33 1
    59   32   34 1
    60   32   35 1
    61   33   56 1
    62   33   57 1
    63   33   58 1
    64   34   59 1
    65   34   60 1
    66   34   61 1
    67   35   62 1
    68   35   63 1
    69   35   64 1
@<TRIPOS>MOLECULE
CHEMBL246970
   54    56     0     0     0
SMALL
USER_CHARGES

@<TRIPOS>ATOM
      1 C1          0.2164    1.5742    0.6894 C.ar      1 <0>        -0.1154
      2 C2          1.4261    2.2399    0.7608 C.ar      1 <0>        -0.0921
      3 C3          2.6104    1.5319    0.6841 C.ar      1 <0>        -0.1118
      4 C4          2.5854    0.1562    0.5364 C.ar      1 <0>        -0.0192
      5 C5          1.3748   -0.5093    0.4655 C.ar      1 <0>        -0.1128
      6 C6          0.1908    0.2001    0.5418 C.ar      1 <0>        -0.0835
      7 C7          1.3467   -2.0074    0.3042 C.3       1 <0>         0.1703
      8 N1          1.5783   -2.6430    1.6036 N.pl3     1 <0>        -0.6657
      9 C8          1.5970   -4.0230    1.7054 C.ar      1 <0>         0.6348
     10 N2          1.4089   -4.7537    0.6162 N.ar      1 <0>        -0.5809
     11 C9          1.4203   -6.0773    0.6737 C.ar      1 <0>         0.3038
     12 C10         1.6317   -6.6991    1.8888 C.ar      1 <0>        -0.2804
     13 C11         1.8268   -5.9031    3.0194 C.ar      1 <0>         0.5337
     14 N3          1.8078   -4.5804    2.8882 N.ar      1 <0>        -0.6162
     15 N4          2.0424   -6.4833    4.2588 N.pl3     1 <0>        -0.6858
     16 C12         2.1266   -5.6434    5.4561 C.3       1 <0>         0.1235
     17 C13         2.3671   -6.5261    6.6824 C.3       1 <0>        -0.1032
     18 C14         1.1530   -7.4297    6.9065 C.3       1 <0>        -0.1208
     19 C15         1.3935   -8.3125    8.1328 C.3       1 <0>        -0.1119
     20 C16         1.6056   -7.4287    9.3636 C.3       1 <0>        -0.1174
     21 C17         2.8198   -6.5251    9.1396 C.3       1 <0>        -0.1286
     22 C18         2.5792   -5.6424    7.9133 C.3       1 <0>        -0.1111
     23 C19         1.8462   -8.3115   10.5899 C.3       1 <0>        -0.0071
     24 N5          1.9307   -7.4693   11.7905 N.4       1 <0>        -0.6391
     25 N6          1.6504   -8.1757    1.9903 N.pl3     1 <0>         0.0757
     26 O1          1.3777   -8.8515    1.0256 O.2       1 <0>        -0.1479
     27 O2          1.9384   -8.7060    3.0379 O.3       1 <0>        -0.2129
     28 Cl1         4.0726   -0.7339    0.4395 Cl        1 <0>        -0.0589
     29 H1         -0.7088    2.1275    0.7535 H         1 <0>         0.1349
     30 H2          1.4455    3.3136    0.8761 H         1 <0>         0.1372
     31 H3          3.5552    2.0521    0.7392 H         1 <0>         0.1381
     32 H4         -0.7544   -0.3193    0.4861 H         1 <0>         0.1360
     33 H5          0.3741   -2.3131   -0.0816 H         1 <0>         0.0908
     34 H6          2.1265   -2.3123   -0.3936 H         1 <0>         0.0923
     35 H7          1.7185   -2.0965    2.3927 H         1 <0>         0.4199
     36 H8          1.2657   -6.6637   -0.2200 H         1 <0>         0.1961
     37 H9          2.1375   -7.4457    4.3338 H         1 <0>         0.4281
     38 H10         2.9511   -4.9387    5.3483 H         1 <0>         0.0774
     39 H11         1.1933   -5.0943    5.5811 H         1 <0>         0.0732
     40 H12         3.2524   -7.1409    6.5196 H         1 <0>         0.0850
     41 H13         0.2677   -6.8150    7.0693 H         1 <0>         0.0703
     42 H14         1.0019   -8.0593    6.0296 H         1 <0>         0.0784
     43 H15         0.5285   -8.9562    8.2924 H         1 <0>         0.0778
     44 H16         2.2788   -8.9272    7.9699 H         1 <0>         0.0780
     45 H17         0.7204   -6.8140    9.5264 H         1 <0>         0.0960
     46 H18         2.9709   -5.8956   10.0164 H         1 <0>         0.0609
     47 H19         3.7051   -7.1399    8.9767 H         1 <0>         0.0815
     48 H20         3.4442   -4.9987    7.7536 H         1 <0>         0.0784
     49 H21         1.6940   -5.0277    8.0761 H         1 <0>         0.0726
     50 H22         1.0216   -9.0162   10.6977 H         1 <0>         0.1362
     51 H23         2.7794   -8.8606   10.4649 H         1 <0>         0.1353
     52 H24         2.0893   -8.0514   12.5992 H         1 <0>         0.4387
     53 H25         2.6939   -6.8169   11.6907 H         1 <0>         0.4329
     54 H26         1.0668   -6.9610   11.9062 H         1 <0>         0.4351
@<TRIPOS>BOND
     1    1    6 ar
     2    1    2 ar
     3    1   29 1
     4    2    3 ar
     5    2   30 1
     6    3    4 ar
     7    3   31 1
     8    4    5 ar
     9    4   28 1
    10    5    6 ar
    11    5    7 1
    12    6   32 1
    13    7    8 1
    14    7   33 1
    15    7   34 1
    16    8    9 1
    17    8   35 1
    18    9   14 ar
    19    9   10 ar
    20   10   11 ar
    21   11   12 ar
    22   11   36 1
    23   12   13 ar
    24   12   25 1
    25   13   14 ar
    26   13   15 1
    27   15   16 1
    28   15   37 1
    29   16   17 1
    30   16   38 1
    31   16   39 1
    32   17   22 1
    33   17   18 1
    34   17   40 1
    35   18   19 1
    36   18   41 1
    37   18   42 1
    38   19   20 1
    39   19   43 1
    40   19   44 1
    41   20   21 1
    42   20   23 1
    43   20   45 1
    44   21   22 1
    45   21   46 1
    46   21   47 1
    47   22   48 1
    48   22   49 1
    49   23   24 1
    50   23   50 1
    51   23   51 1
    52   24   52 1
    53   24   53 1
    54   24   54 1
    55   25   26 2
    56   25   27 1
@<TRIPOS>MOLECULE
CHEMBL508435
   70    74     0     0     0
SMALL
USER_CHARGES

@<TRIPOS>ATOM
      1 C1          0.8706    1.5577   -0.5967 C.ar      1 <0>        -0.0845
      2 C2          2.1060    2.1466   -0.7913 C.ar      1 <0>        -0.1055
      3 C3          3.2486    1.3686   -0.8024 C.ar      1 <0>        -0.0795
      4 C4          3.1557    0.0017   -0.6184 C.ar      1 <0>        -0.1492
      5 C5          1.9204   -0.5871   -0.4229 C.ar      1 <0>        -0.1164
      6 C6          0.7778    0.1908   -0.4132 C.ar      1 <0>        -0.1039
      7 C7          4.4012   -0.8467   -0.6315 C.3       1 <0>         0.0745
      8 H1          5.2710   -0.2181   -0.4409 H         1 <0>         0.1549
      9 C8          4.5468   -1.5178   -1.9987 C.3       1 <0>         0.0916
     10 N1          5.6894   -2.4344   -1.9736 N.am      1 <0>        -0.5731
     11 C9          6.9177   -1.9858   -2.3076 C.2       1 <0>         0.5478
     12 O1          7.0880   -0.8246   -2.6306 O.2       1 <0>        -0.4688
     13 C10         8.0450   -2.9269   -2.2731 C.2       1 <0>        -0.1982
     14 C11         7.8002   -4.2163   -1.9039 C.2       1 <0>         0.1764
     15 N2          6.5281   -4.5927   -1.5803 N.am      1 <0>        -0.5203
     16 C12         5.5103   -3.7172   -1.6126 C.2       1 <0>         0.6786
     17 O2          4.3950   -4.0962   -1.3116 O.2       1 <0>        -0.5325
     18 C13         6.2692   -5.9792   -1.1842 C.3       1 <0>         0.1359
     19 C14         6.3453   -6.0955    0.3164 C.ar      1 <0>        -0.1153
     20 C15         5.2670   -6.5876    1.0273 C.ar      1 <0>        -0.1346
     21 C16         5.3365   -6.6944    2.4037 C.ar      1 <0>        -0.0799
     22 C17         6.4846   -6.3092    3.0709 C.ar      1 <0>        -0.0745
     23 C18         7.5641   -5.8173    2.3623 C.ar      1 <0>        -0.1181
     24 C19         7.4974   -5.7148    0.9829 C.ar      1 <0>         0.1112
     25 F1          8.5540   -5.2384    0.2886 F         1 <0>        -0.1230
     26 C20         4.0147   -7.0075    0.3016 C.3       1 <0>         0.5014
     27 F2          3.1252   -7.5946    1.2078 F         1 <0>        -0.1689
     28 F3          3.4148   -5.8858   -0.2806 F         1 <0>        -0.1543
     29 F4          4.3418   -7.9320   -0.6962 F         1 <0>        -0.1705
     30 C21         9.4147   -2.4858   -2.6311 C.ar      1 <0>        -0.0226
     31 C22        10.0767   -1.5478   -1.8405 C.ar      1 <0>        -0.0886
     32 C23        11.3515   -1.1413   -2.1783 C.ar      1 <0>        -0.0915
     33 C24        11.9724   -1.6628   -3.2990 C.ar      1 <0>        -0.0798
     34 C25        11.3202   -2.5936   -4.0876 C.ar      1 <0>        -0.0902
     35 C26        10.0474   -3.0118   -3.7563 C.ar      1 <0>        -0.1008
     36 C27        13.3646   -1.2148   -3.6626 C.3       1 <0>         0.1022
     37 O3         14.3201   -2.0679   -3.0291 O.3       1 <0>        -0.3433
     38 C28        15.6168   -1.8021   -3.2524 C.2       1 <0>         0.4921
     39 O4         15.9301   -0.8760   -3.9623 O.2       1 <0>        -0.5015
     40 C29        16.6817   -2.6590   -2.6178 C.3       1 <0>        -0.1745
     41 C30        17.5473   -2.0199   -1.5300 C.3       1 <0>        -0.1472
     42 C31        18.1410   -2.3049   -2.9110 C.3       1 <0>        -0.1444
     43 N3          4.3032   -1.8765    0.4115 N.4       1 <0>        -0.6341
     44 H2         -0.0216    2.1662   -0.5835 H         1 <0>         0.1379
     45 H3          2.1786    3.2146   -0.9350 H         1 <0>         0.1395
     46 H4          4.2137    1.8286   -0.9551 H         1 <0>         0.1370
     47 H5          1.8479   -1.6551   -0.2796 H         1 <0>         0.1231
     48 H6         -0.1874   -0.2693   -0.2609 H         1 <0>         0.1379
     49 H7          3.6387   -2.0753   -2.2283 H         1 <0>         0.1313
     50 H8          4.7085   -0.7565   -2.7618 H         1 <0>         0.1486
     51 H9          8.6060   -4.9345   -1.8681 H         1 <0>         0.1912
     52 H10         5.2755   -6.2739   -1.5215 H         1 <0>         0.1268
     53 H11         7.0152   -6.6319   -1.6375 H         1 <0>         0.1312
     54 H12         4.4933   -7.0788    2.9583 H         1 <0>         0.1545
     55 H13         6.5376   -6.3924    4.1464 H         1 <0>         0.1552
     56 H14         8.4606   -5.5161    2.8837 H         1 <0>         0.1547
     57 H15         9.5927   -1.1397   -0.9655 H         1 <0>         0.1221
     58 H16        11.8652   -0.4143   -1.5667 H         1 <0>         0.1302
     59 H17        11.8095   -2.9969   -4.9618 H         1 <0>         0.1322
     60 H18         9.5408   -3.7418   -4.3701 H         1 <0>         0.1286
     61 H19        13.4921   -1.2664   -4.7439 H         1 <0>         0.0814
     62 H20        13.5152   -0.1886   -3.3275 H         1 <0>         0.0804
     63 H21        16.4322   -3.7143   -2.5076 H         1 <0>         0.1375
     64 H22        17.3465   -0.9798   -1.2734 H         1 <0>         0.1023
     65 H23        17.8673   -2.6548   -0.7038 H         1 <0>         0.1131
     66 H24        18.8516   -3.1273   -2.9934 H         1 <0>         0.1130
     67 H25        18.3308   -1.4522   -3.5629 H         1 <0>         0.1114
     68 H26         5.1371   -2.4445    0.4027 H         1 <0>         0.4235
     69 H27         4.2072   -1.4339    1.3132 H         1 <0>         0.4392
     70 H28         3.4980   -2.4584    0.2350 H         1 <0>         0.4390
@<TRIPOS>BOND
     1    1    6 ar
     2    1    2 ar
     3    1   44 1
     4    2    3 ar
     5    2   45 1
     6    3    4 ar
     7    3   46 1
     8    4    5 ar
     9    4    7 1
    10    5    6 ar
    11    5   47 1
    12    6   48 1
    13    7    8 1
    14    7    9 1
    15    7   43 1
    16    9   10 1
    17    9   49 1
    18    9   50 1
    19   10   16 am
    20   10   11 am
    21   11   12 2
    22   11   13 1
    23   13   14 2
    24   13   30 1
    25   14   15 1
    26   14   51 1
    27   15   16 am
    28   15   18 1
    29   16   17 2
    30   18   19 1
    31   18   52 1
    32   18   53 1
    33   19   24 ar
    34   19   20 ar
    35   20   21 ar
    36   20   26 1
    37   21   22 ar
    38   21   54 1
    39   22   23 ar
    40   22   55 1
    41   23   24 ar
    42   23   56 1
    43   24   25 1
    44   26   27 1
    45   26   28 1
    46   26   29 1
    47   30   35 ar
    48   30   31 ar
    49   31   32 ar
    50   31   57 1
    51   32   33 ar
    52   32   58 1
    53   33   34 ar
    54   33   36 1
    55   34   35 ar
    56   34   59 1
    57   35   60 1
    58   36   37 1
    59   36   61 1
    60   36   62 1
    61   37   38 1
    62   38   39 2
    63   38   40 1
    64   40   42 1
    65   40   41 1
    66   40   63 1
    67   41   42 1
    68   41   64 1
    69   41   65 1
    70   42   66 1
    71   42   67 1
    72   43   68 1
    73   43   69 1
    74   43   70 1
