@<TRIPOS>MOLECULE
CHEMBL472208
   51    56     0     0     0
SMALL
USER_CHARGES

@<TRIPOS>ATOM
      1 C1         -0.0166    1.3753    0.0096 C.ar      1 <0>        -0.1153
      2 C2          1.1702    2.0869    0.0021 C.ar      1 <0>        -0.0956
      3 C3          2.3823    1.4213   -0.0135 C.ar      1 <0>        -0.1089
      4 C4          2.4147    0.0403   -0.0213 C.ar      1 <0>        -0.0001
      5 C5          1.2208   -0.6823   -0.0133 C.ar      1 <0>        -0.0540
      6 C6          0.0021   -0.0041    0.0020 C.ar      1 <0>        -0.0854
      7 C7          1.2476   -2.1633   -0.0220 C.ar      1 <0>         0.0578
      8 C8          0.7443   -2.8623   -1.1176 C.ar      1 <0>        -0.1068
      9 C9          0.7641   -4.2503   -1.1370 C.ar      1 <0>         0.1752
     10 C10         1.2978   -4.9603   -0.0406 C.ar      1 <0>        -0.0291
     11 C11         1.1711   -6.3898   -0.3691 C.ar      1 <0>        -0.0953
     12 C12         1.5141   -7.5614    0.3052 C.ar      1 <0>        -0.0746
     13 C13         1.2616   -8.7878   -0.2800 C.ar      1 <0>         0.0786
     14 C14         0.6683   -8.8531   -1.5363 C.ar      1 <0>        -0.0949
     15 C15         0.3265   -7.7006   -2.2102 C.ar      1 <0>        -0.1254
     16 C16         0.5722   -6.4571   -1.6364 C.ar      1 <0>         0.1415
     17 N1          0.3368   -5.1656   -2.0786 N.pl3     1 <0>        -0.4920
     18 C17        -0.2788   -4.8200   -3.3623 C.3       1 <0>         0.1346
     19 C18         0.8102   -4.6727   -4.4269 C.3       1 <0>        -0.4939
     20 S1          0.0480   -4.2447   -6.0164 S.o       1 <0>         1.4210
     21 O1         -0.6839   -5.3599   -6.5062 O.2       1 <0>        -0.8060
     22 C19         1.4135   -4.1122   -7.1220 C.2       1 <0>        -0.1160
     23 N2          1.9218   -5.1075   -7.8475 N.2       1 <0>        -0.5007
     24 H1          3.7513   -2.7665   -8.6784 H         1 <0>         0.4475
     25 C20         2.9279   -4.6688   -8.5595 C.2       1 <0>         0.2602
     26 N3          3.0848   -3.3597   -8.2977 N.pl3     1 <0>        -0.4711
     27 N4          2.0887   -3.0202   -7.3677 N.2       1 <0>        -0.2386
     28 O2          1.5943   -9.9330    0.3737 O.3       1 <0>        -0.4930
     29 C21         1.8044   -4.2673    1.0595 C.ar      1 <0>        -0.0801
     30 C22         1.7840   -2.8596    1.0679 C.ar      1 <0>        -0.1519
     31 C23         2.3884   -2.4533    2.3485 C.2       1 <0>         0.5793
     32 O3          2.5449   -1.3094    2.7274 O.2       1 <0>        -0.4482
     33 N5          2.7379   -3.5599    3.0287 N.am      1 <0>        -0.6809
     34 C24         2.4184   -4.6701    2.3393 C.2       1 <0>         0.5787
     35 O4          2.6139   -5.8124    2.7038 O.2       1 <0>        -0.4566
     36 Cl1         3.9368   -0.7943   -0.0415 Cl        1 <0>        -0.0623
     37 H2         -0.9598    1.9012    0.0260 H         1 <0>         0.1337
     38 H3          1.1498    3.1667    0.0081 H         1 <0>         0.1343
     39 H4          3.3052    1.9822   -0.0201 H         1 <0>         0.1361
     40 H5         -0.9252   -0.5577    0.0083 H         1 <0>         0.1357
     41 H6          0.3356   -2.3202   -1.9575 H         1 <0>         0.1493
     42 H7          1.9754   -7.5105    1.2804 H         1 <0>         0.1478
     43 H8          0.4742   -9.8149   -1.9876 H         1 <0>         0.1397
     44 H9         -0.1334   -7.7627   -3.1854 H         1 <0>         0.1328
     45 H10        -0.9710   -5.6085   -3.6574 H         1 <0>         0.1012
     46 H11        -0.8204   -3.8791   -3.2640 H         1 <0>         0.1073
     47 H12         1.5024   -3.8841   -4.1319 H         1 <0>         0.1288
     48 H13         1.3518   -5.6135   -4.5253 H         1 <0>         0.1048
     49 H14         3.5279   -5.2561   -9.2389 H         1 <0>         0.2292
     50 H15         0.8923  -10.2803    0.9408 H         1 <0>         0.3904
     51 H16         3.1568   -3.5579    3.9036 H         1 <0>         0.4313
@<TRIPOS>BOND
     1    1    6 ar
     2    1    2 ar
     3    1   37 1
     4    2    3 ar
     5    2   38 1
     6    3    4 ar
     7    3   39 1
     8    4    5 ar
     9    4   36 1
    10    5    6 ar
    11    5    7 1
    12    6   40 1
    13    7   30 ar
    14    7    8 ar
    15    8    9 ar
    16    8   41 1
    17    9   17 1
    18    9   10 ar
    19   10   11 1
    20   10   29 ar
    21   11   16 ar
    22   11   12 ar
    23   12   13 ar
    24   12   42 1
    25   13   14 ar
    26   13   28 1
    27   14   15 ar
    28   14   43 1
    29   15   16 ar
    30   15   44 1
    31   16   17 1
    32   17   18 1
    33   18   19 1
    34   18   45 1
    35   18   46 1
    36   19   20 1
    37   19   47 1
    38   19   48 1
    39   20   21 2
    40   20   22 1
    41   22   23 1
    42   22   27 2
    43   23   25 2
    44   24   26 1
    45   25   49 1
    46   25   26 1
    47   26   27 1
    48   28   50 1
    49   29   34 1
    50   29   30 ar
    51   30   31 1
    52   31   32 2
    53   31   33 am
    54   33   34 am
    55   33   51 1
    56   34   35 2
@<TRIPOS>MOLECULE
CHEMBL472208
   51    56     0     0     0
SMALL
USER_CHARGES

@<TRIPOS>ATOM
      1 C1         -0.0166    1.3753    0.0096 C.ar      1 <0>        -0.1154
      2 C2          1.1702    2.0869    0.0021 C.ar      1 <0>        -0.0953
      3 C3          2.3823    1.4213   -0.0135 C.ar      1 <0>        -0.1087
      4 C4          2.4147    0.0403   -0.0213 C.ar      1 <0>        -0.0007
      5 C5          1.2208   -0.6823   -0.0133 C.ar      1 <0>        -0.0548
      6 C6          0.0021   -0.0041    0.0020 C.ar      1 <0>        -0.0857
      7 C7          1.2476   -2.1633   -0.0220 C.ar      1 <0>         0.0582
      8 C8          0.7443   -2.8623   -1.1176 C.ar      1 <0>        -0.1084
      9 C9          0.7641   -4.2503   -1.1370 C.ar      1 <0>         0.1745
     10 C10         1.2978   -4.9603   -0.0406 C.ar      1 <0>        -0.0284
     11 C11         1.1711   -6.3898   -0.3691 C.ar      1 <0>        -0.0947
     12 C12         1.5141   -7.5614    0.3052 C.ar      1 <0>        -0.0747
     13 C13         1.2616   -8.7878   -0.2800 C.ar      1 <0>         0.0801
     14 C14         0.6683   -8.8531   -1.5363 C.ar      1 <0>        -0.0945
     15 C15         0.3265   -7.7006   -2.2102 C.ar      1 <0>        -0.1253
     16 C16         0.5722   -6.4571   -1.6364 C.ar      1 <0>         0.1404
     17 N1          0.3368   -5.1656   -2.0786 N.pl3     1 <0>        -0.4928
     18 C17        -0.2788   -4.8200   -3.3623 C.3       1 <0>         0.1345
     19 C18         0.8102   -4.6727   -4.4269 C.3       1 <0>        -0.4951
     20 S1          0.0480   -4.2447   -6.0164 S.o       1 <0>         1.4053
     21 O1         -0.6839   -5.3599   -6.5062 O.2       1 <0>        -0.7890
     22 C19         1.4135   -4.1122   -7.1220 C.2       1 <0>        -0.0675
     23 N2          1.9190   -5.0832   -7.8385 N.2       1 <0>        -0.4833
     24 H1          1.9671   -2.1148   -6.9993 H         1 <0>         0.4482
     25 C20         2.9424   -4.6272   -8.5596 C.2       1 <0>         0.1964
     26 N3          3.1031   -3.3541   -8.3109 N.2       1 <0>        -0.2877
     27 N4          2.1141   -2.9944   -7.3809 N.pl3     1 <0>        -0.4316
     28 O2          1.5943   -9.9330    0.3737 O.3       1 <0>        -0.4927
     29 C21         1.8044   -4.2673    1.0595 C.ar      1 <0>        -0.0790
     30 C22         1.7840   -2.8596    1.0679 C.ar      1 <0>        -0.1512
     31 C23         2.3884   -2.4533    2.3485 C.2       1 <0>         0.5790
     32 O3          2.5449   -1.3094    2.7274 O.2       1 <0>        -0.4476
     33 N5          2.7379   -3.5599    3.0287 N.am      1 <0>        -0.6807
     34 C24         2.4184   -4.6701    2.3393 C.2       1 <0>         0.5783
     35 O4          2.6139   -5.8124    2.7038 O.2       1 <0>        -0.4556
     36 Cl1         3.9368   -0.7943   -0.0415 Cl        1 <0>        -0.0615
     37 H2         -0.9598    1.9012    0.0260 H         1 <0>         0.1338
     38 H3          1.1498    3.1667    0.0081 H         1 <0>         0.1346
     39 H4          3.3052    1.9822   -0.0201 H         1 <0>         0.1365
     40 H5         -0.9252   -0.5577    0.0083 H         1 <0>         0.1356
     41 H6          0.3356   -2.3202   -1.9575 H         1 <0>         0.1482
     42 H7          1.9754   -7.5105    1.2804 H         1 <0>         0.1481
     43 H8          0.4742   -9.8149   -1.9876 H         1 <0>         0.1403
     44 H9         -0.1334   -7.7627   -3.1854 H         1 <0>         0.1327
     45 H10        -0.9710   -5.6085   -3.6574 H         1 <0>         0.1022
     46 H11        -0.8204   -3.8791   -3.2640 H         1 <0>         0.1074
     47 H12         1.5024   -3.8841   -4.1319 H         1 <0>         0.1297
     48 H13         1.3518   -5.6135   -4.5253 H         1 <0>         0.1100
     49 H14         3.5424   -5.2145   -9.2390 H         1 <0>         0.2251
     50 H15         0.8923  -10.2803    0.9408 H         1 <0>         0.3910
     51 H16         3.1568   -3.5579    3.9036 H         1 <0>         0.4317
@<TRIPOS>BOND
     1    1    6 ar
     2    1    2 ar
     3    1   37 1
     4    2    3 ar
     5    2   38 1
     6    3    4 ar
     7    3   39 1
     8    4    5 ar
     9    4   36 1
    10    5    6 ar
    11    5    7 1
    12    6   40 1
    13    7   30 ar
    14    7    8 ar
    15    8    9 ar
    16    8   41 1
    17    9   17 1
    18    9   10 ar
    19   10   11 1
    20   10   29 ar
    21   11   16 ar
    22   11   12 ar
    23   12   13 ar
    24   12   42 1
    25   13   14 ar
    26   13   28 1
    27   14   15 ar
    28   14   43 1
    29   15   16 ar
    30   15   44 1
    31   16   17 1
    32   17   18 1
    33   18   19 1
    34   18   45 1
    35   18   46 1
    36   19   20 1
    37   19   47 1
    38   19   48 1
    39   20   21 2
    40   20   22 1
    41   22   23 2
    42   22   27 1
    43   23   25 1
    44   24   27 1
    45   25   49 1
    46   25   26 2
    47   26   27 1
    48   28   50 1
    49   29   34 1
    50   29   30 ar
    51   30   31 1
    52   31   32 2
    53   31   33 am
    54   33   34 am
    55   33   51 1
    56   34   35 2
@<TRIPOS>MOLECULE
CHEMBL472208
   50    55     0     0     0
SMALL
USER_CHARGES

@<TRIPOS>ATOM
      1 C1         -0.0166    1.3753    0.0096 C.ar      1 <0>        -0.1167
      2 C2          1.1702    2.0869    0.0021 C.ar      1 <0>        -0.0981
      3 C3          2.3823    1.4213   -0.0135 C.ar      1 <0>        -0.1093
      4 C4          2.4147    0.0403   -0.0213 C.ar      1 <0>         0.0012
      5 C5          1.2208   -0.6823   -0.0133 C.ar      1 <0>        -0.0496
      6 C6          0.0021   -0.0041    0.0020 C.ar      1 <0>        -0.0855
      7 C7          1.2476   -2.1633   -0.0220 C.ar      1 <0>         0.0550
      8 C8          0.7443   -2.8623   -1.1176 C.ar      1 <0>        -0.1024
      9 C9          0.7641   -4.2503   -1.1370 C.ar      1 <0>         0.1793
     10 C10         1.2978   -4.9603   -0.0406 C.ar      1 <0>        -0.0307
     11 C11         1.1711   -6.3898   -0.3691 C.ar      1 <0>        -0.0991
     12 C12         1.5141   -7.5614    0.3052 C.ar      1 <0>        -0.0751
     13 C13         1.2616   -8.7878   -0.2800 C.ar      1 <0>         0.0716
     14 C14         0.6683   -8.8531   -1.5363 C.ar      1 <0>        -0.0960
     15 C15         0.3265   -7.7006   -2.2102 C.ar      1 <0>        -0.1223
     16 C16         0.5722   -6.4571   -1.6364 C.ar      1 <0>         0.1470
     17 N1          0.3368   -5.1656   -2.0786 N.pl3     1 <0>        -0.4869
     18 C17        -0.2788   -4.8200   -3.3623 C.3       1 <0>         0.1350
     19 C18         0.8102   -4.6727   -4.4269 C.3       1 <0>        -0.4944
     20 S1          0.0480   -4.2447   -6.0164 S.o       1 <0>         1.4009
     21 O1         -0.6839   -5.3599   -6.5062 O.2       1 <0>        -0.8547
     22 C19         1.4135   -4.1122   -7.1220 C.2       1 <0>        -0.2137
     23 N2          1.9218   -5.1075   -7.8475 N.2       1 <0>        -0.5735
     24 C20         2.9279   -4.6688   -8.5595 C.2       1 <0>         0.1035
     25 N3          3.0848   -3.3597   -8.2977 N.2       1 <0>        -0.4171
     26 N4          2.0887   -3.0202   -7.3677 N.2       1 <0>        -0.3361
     27 O2          1.5943   -9.9330    0.3737 O.3       1 <0>        -0.4933
     28 C21         1.8044   -4.2673    1.0595 C.ar      1 <0>        -0.0835
     29 C22         1.7840   -2.8596    1.0679 C.ar      1 <0>        -0.1575
     30 C23         2.3884   -2.4533    2.3485 C.2       1 <0>         0.5818
     31 O3          2.5449   -1.3094    2.7274 O.2       1 <0>        -0.4531
     32 N5          2.7379   -3.5599    3.0287 N.am      1 <0>        -0.6822
     33 C24         2.4184   -4.6701    2.3393 C.2       1 <0>         0.5807
     34 O4          2.6139   -5.8124    2.7038 O.2       1 <0>        -0.4606
     35 Cl1         3.9368   -0.7943   -0.0415 Cl        1 <0>        -0.0607
     36 H1         -0.9598    1.9012    0.0260 H         1 <0>         0.1320
     37 H2          1.1498    3.1667    0.0081 H         1 <0>         0.1324
     38 H3          3.3052    1.9822   -0.0201 H         1 <0>         0.1351
     39 H4         -0.9252   -0.5577    0.0083 H         1 <0>         0.1353
     40 H5          0.3356   -2.3202   -1.9575 H         1 <0>         0.1516
     41 H6          1.9754   -7.5105    1.2804 H         1 <0>         0.1456
     42 H7          0.4742   -9.8149   -1.9876 H         1 <0>         0.1379
     43 H8         -0.1334   -7.7627   -3.1854 H         1 <0>         0.1346
     44 H9         -0.9710   -5.6085   -3.6574 H         1 <0>         0.0969
     45 H10        -0.8204   -3.8791   -3.2640 H         1 <0>         0.1036
     46 H11         1.5024   -3.8841   -4.1319 H         1 <0>         0.1181
     47 H12         1.3518   -5.6135   -4.5253 H         1 <0>         0.0924
     48 H13         3.5279   -5.2561   -9.2389 H         1 <0>         0.1659
     49 H14         0.8923  -10.2803    0.9408 H         1 <0>         0.3861
     50 H15         3.1568   -3.5579    3.9036 H         1 <0>         0.4286
@<TRIPOS>BOND
     1    1    6 ar
     2    1    2 ar
     3    1   36 1
     4    2    3 ar
     5    2   37 1
     6    3    4 ar
     7    3   38 1
     8    4    5 ar
     9    4   35 1
    10    5    6 ar
    11    5    7 1
    12    6   39 1
    13    7   29 ar
    14    7    8 ar
    15    8    9 ar
    16    8   40 1
    17    9   17 1
    18    9   10 ar
    19   10   11 1
    20   10   28 ar
    21   11   16 ar
    22   11   12 ar
    23   12   13 ar
    24   12   41 1
    25   13   14 ar
    26   13   27 1
    27   14   15 ar
    28   14   42 1
    29   15   16 ar
    30   15   43 1
    31   16   17 1
    32   17   18 1
    33   18   19 1
    34   18   44 1
    35   18   45 1
    36   19   20 1
    37   19   46 1
    38   19   47 1
    39   20   21 2
    40   20   22 1
    41   22   23 1
    42   22   26 2
    43   23   24 2
    44   24   48 1
    45   24   25 1
    46   25   26 1
    47   27   49 1
    48   28   33 1
    49   28   29 ar
    50   29   30 1
    51   30   31 2
    52   30   32 am
    53   32   33 am
    54   32   50 1
    55   33   34 2
@<TRIPOS>MOLECULE
CHEMBL472208
   51    56     0     0     0
SMALL
USER_CHARGES

@<TRIPOS>ATOM
      1 C1         -0.0166    1.3753    0.0096 C.ar      1 <0>        -0.1151
      2 C2          1.1702    2.0869    0.0021 C.ar      1 <0>        -0.0956
      3 C3          2.3823    1.4213   -0.0135 C.ar      1 <0>        -0.1092
      4 C4          2.4147    0.0403   -0.0213 C.ar      1 <0>        -0.0003
      5 C5          1.2208   -0.6823   -0.0133 C.ar      1 <0>        -0.0550
      6 C6          0.0021   -0.0041    0.0020 C.ar      1 <0>        -0.0854
      7 C7          1.2476   -2.1633   -0.0220 C.ar      1 <0>         0.0582
      8 C8          0.7443   -2.8623   -1.1176 C.ar      1 <0>        -0.1068
      9 C9          0.7641   -4.2503   -1.1370 C.ar      1 <0>         0.1740
     10 C10         1.2978   -4.9603   -0.0406 C.ar      1 <0>        -0.0287
     11 C11         1.1711   -6.3898   -0.3691 C.ar      1 <0>        -0.0957
     12 C12         1.5141   -7.5614    0.3052 C.ar      1 <0>        -0.0742
     13 C13         1.2616   -8.7878   -0.2800 C.ar      1 <0>         0.0774
     14 C14         0.6683   -8.8531   -1.5363 C.ar      1 <0>        -0.0945
     15 C15         0.3265   -7.7006   -2.2102 C.ar      1 <0>        -0.1252
     16 C16         0.5722   -6.4571   -1.6364 C.ar      1 <0>         0.1423
     17 N1          0.3368   -5.1656   -2.0786 N.pl3     1 <0>        -0.4923
     18 C17        -0.2788   -4.8200   -3.3623 C.3       1 <0>         0.1347
     19 C18         0.8102   -4.6727   -4.4269 C.3       1 <0>        -0.4934
     20 S1          0.0480   -4.2447   -6.0164 S.o       1 <0>         1.4277
     21 O1         -0.4717   -2.9237   -5.9520 O.2       1 <0>        -0.8158
     22 C19         1.4135   -4.1122   -7.1220 C.2       1 <0>        -0.1156
     23 N2          1.9218   -5.1075   -7.8475 N.2       1 <0>        -0.4898
     24 H1          3.7513   -2.7665   -8.6784 H         1 <0>         0.4464
     25 C20         2.9279   -4.6688   -8.5595 C.2       1 <0>         0.2615
     26 N3          3.0848   -3.3597   -8.2977 N.pl3     1 <0>        -0.4738
     27 N4          2.0887   -3.0202   -7.3677 N.2       1 <0>        -0.2487
     28 O2          1.5943   -9.9330    0.3737 O.3       1 <0>        -0.4934
     29 C21         1.8044   -4.2673    1.0595 C.ar      1 <0>        -0.0812
     30 C22         1.7840   -2.8596    1.0679 C.ar      1 <0>        -0.1514
     31 C23         2.3884   -2.4533    2.3485 C.2       1 <0>         0.5793
     32 O3          2.5449   -1.3094    2.7274 O.2       1 <0>        -0.4476
     33 N5          2.7379   -3.5599    3.0287 N.am      1 <0>        -0.6806
     34 C24         2.4184   -4.6701    2.3393 C.2       1 <0>         0.5798
     35 O4          2.6139   -5.8124    2.7038 O.2       1 <0>        -0.4565
     36 Cl1         3.9368   -0.7943   -0.0415 Cl        1 <0>        -0.0628
     37 H2         -0.9598    1.9012    0.0260 H         1 <0>         0.1341
     38 H3          1.1498    3.1667    0.0081 H         1 <0>         0.1350
     39 H4          3.3052    1.9822   -0.0201 H         1 <0>         0.1366
     40 H5         -0.9252   -0.5577    0.0083 H         1 <0>         0.1352
     41 H6          0.3356   -2.3202   -1.9575 H         1 <0>         0.1444
     42 H7          1.9754   -7.5105    1.2804 H         1 <0>         0.1468
     43 H8          0.4742   -9.8149   -1.9876 H         1 <0>         0.1410
     44 H9         -0.1334   -7.7627   -3.1854 H         1 <0>         0.1376
     45 H10        -0.9710   -5.6085   -3.6574 H         1 <0>         0.1103
     46 H11        -0.8204   -3.8791   -3.2640 H         1 <0>         0.0985
     47 H12         1.5024   -3.8841   -4.1319 H         1 <0>         0.1009
     48 H13         1.3518   -5.6135   -4.5253 H         1 <0>         0.1328
     49 H14         3.5279   -5.2561   -9.2389 H         1 <0>         0.2322
     50 H15         0.8923  -10.2803    0.9408 H         1 <0>         0.3903
     51 H16         3.1568   -3.5579    3.9036 H         1 <0>         0.4314
@<TRIPOS>BOND
     1    1    6 ar
     2    1    2 ar
     3    1   37 1
     4    2    3 ar
     5    2   38 1
     6    3    4 ar
     7    3   39 1
     8    4    5 ar
     9    4   36 1
    10    5    6 ar
    11    5    7 1
    12    6   40 1
    13    7   30 ar
    14    7    8 ar
    15    8    9 ar
    16    8   41 1
    17    9   17 1
    18    9   10 ar
    19   10   11 1
    20   10   29 ar
    21   11   16 ar
    22   11   12 ar
    23   12   13 ar
    24   12   42 1
    25   13   14 ar
    26   13   28 1
    27   14   15 ar
    28   14   43 1
    29   15   16 ar
    30   15   44 1
    31   16   17 1
    32   17   18 1
    33   18   19 1
    34   18   45 1
    35   18   46 1
    36   19   20 1
    37   19   47 1
    38   19   48 1
    39   20   21 2
    40   20   22 1
    41   22   23 1
    42   22   27 2
    43   23   25 2
    44   24   26 1
    45   25   49 1
    46   25   26 1
    47   26   27 1
    48   28   50 1
    49   29   34 1
    50   29   30 ar
    51   30   31 1
    52   31   32 2
    53   31   33 am
    54   33   34 am
    55   33   51 1
    56   34   35 2
@<TRIPOS>MOLECULE
CHEMBL472208
   50    55     0     0     0
SMALL
USER_CHARGES

@<TRIPOS>ATOM
      1 C1         -0.0166    1.3753    0.0096 C.ar      1 <0>        -0.1165
      2 C2          1.1702    2.0869    0.0021 C.ar      1 <0>        -0.0980
      3 C3          2.3823    1.4213   -0.0135 C.ar      1 <0>        -0.1096
      4 C4          2.4147    0.0403   -0.0213 C.ar      1 <0>         0.0010
      5 C5          1.2208   -0.6823   -0.0133 C.ar      1 <0>        -0.0506
      6 C6          0.0021   -0.0041    0.0020 C.ar      1 <0>        -0.0854
      7 C7          1.2476   -2.1633   -0.0220 C.ar      1 <0>         0.0553
      8 C8          0.7443   -2.8623   -1.1176 C.ar      1 <0>        -0.1020
      9 C9          0.7641   -4.2503   -1.1370 C.ar      1 <0>         0.1780
     10 C10         1.2978   -4.9603   -0.0406 C.ar      1 <0>        -0.0303
     11 C11         1.1711   -6.3898   -0.3691 C.ar      1 <0>        -0.0996
     12 C12         1.5141   -7.5614    0.3052 C.ar      1 <0>        -0.0745
     13 C13         1.2616   -8.7878   -0.2800 C.ar      1 <0>         0.0702
     14 C14         0.6683   -8.8531   -1.5363 C.ar      1 <0>        -0.0956
     15 C15         0.3265   -7.7006   -2.2102 C.ar      1 <0>        -0.1224
     16 C16         0.5722   -6.4571   -1.6364 C.ar      1 <0>         0.1479
     17 N1          0.3368   -5.1656   -2.0786 N.pl3     1 <0>        -0.4872
     18 C17        -0.2788   -4.8200   -3.3623 C.3       1 <0>         0.1352
     19 C18         0.8102   -4.6727   -4.4269 C.3       1 <0>        -0.4938
     20 S1          0.0480   -4.2447   -6.0164 S.o       1 <0>         1.4030
     21 O1         -0.4717   -2.9237   -5.9520 O.2       1 <0>        -0.8563
     22 C19         1.4135   -4.1122   -7.1220 C.2       1 <0>        -0.2152
     23 N2          1.9218   -5.1075   -7.8475 N.2       1 <0>        -0.5688
     24 C20         2.9279   -4.6688   -8.5595 C.2       1 <0>         0.1057
     25 N3          3.0848   -3.3597   -8.2977 N.2       1 <0>        -0.4233
     26 N4          2.0887   -3.0202   -7.3677 N.2       1 <0>        -0.3397
     27 O2          1.5943   -9.9330    0.3737 O.3       1 <0>        -0.4937
     28 C21         1.8044   -4.2673    1.0595 C.ar      1 <0>        -0.0849
     29 C22         1.7840   -2.8596    1.0679 C.ar      1 <0>        -0.1568
     30 C23         2.3884   -2.4533    2.3485 C.2       1 <0>         0.5818
     31 O3          2.5449   -1.3094    2.7274 O.2       1 <0>        -0.4525
     32 N5          2.7379   -3.5599    3.0287 N.am      1 <0>        -0.6819
     33 C24         2.4184   -4.6701    2.3393 C.2       1 <0>         0.5819
     34 O4          2.6139   -5.8124    2.7038 O.2       1 <0>        -0.4607
     35 Cl1         3.9368   -0.7943   -0.0415 Cl        1 <0>        -0.0613
     36 H1         -0.9598    1.9012    0.0260 H         1 <0>         0.1324
     37 H2          1.1498    3.1667    0.0081 H         1 <0>         0.1331
     38 H3          3.3052    1.9822   -0.0201 H         1 <0>         0.1356
     39 H4         -0.9252   -0.5577    0.0083 H         1 <0>         0.1348
     40 H5          0.3356   -2.3202   -1.9575 H         1 <0>         0.1469
     41 H6          1.9754   -7.5105    1.2804 H         1 <0>         0.1446
     42 H7          0.4742   -9.8149   -1.9876 H         1 <0>         0.1391
     43 H8         -0.1334   -7.7627   -3.1854 H         1 <0>         0.1394
     44 H9         -0.9710   -5.6085   -3.6574 H         1 <0>         0.1057
     45 H10        -0.8204   -3.8791   -3.2640 H         1 <0>         0.0950
     46 H11         1.5024   -3.8841   -4.1319 H         1 <0>         0.0908
     47 H12         1.3518   -5.6135   -4.5253 H         1 <0>         0.1194
     48 H13         3.5279   -5.2561   -9.2389 H         1 <0>         0.1690
     49 H14         0.8923  -10.2803    0.9408 H         1 <0>         0.3860
     50 H15         3.1568   -3.5579    3.9036 H         1 <0>         0.4287
@<TRIPOS>BOND
     1    1    6 ar
     2    1    2 ar
     3    1   36 1
     4    2    3 ar
     5    2   37 1
     6    3    4 ar
     7    3   38 1
     8    4    5 ar
     9    4   35 1
    10    5    6 ar
    11    5    7 1
    12    6   39 1
    13    7   29 ar
    14    7    8 ar
    15    8    9 ar
    16    8   40 1
    17    9   17 1
    18    9   10 ar
    19   10   11 1
    20   10   28 ar
    21   11   16 ar
    22   11   12 ar
    23   12   13 ar
    24   12   41 1
    25   13   14 ar
    26   13   27 1
    27   14   15 ar
    28   14   42 1
    29   15   16 ar
    30   15   43 1
    31   16   17 1
    32   17   18 1
    33   18   19 1
    34   18   44 1
    35   18   45 1
    36   19   20 1
    37   19   46 1
    38   19   47 1
    39   20   21 2
    40   20   22 1
    41   22   23 1
    42   22   26 2
    43   23   24 2
    44   24   48 1
    45   24   25 1
    46   25   26 1
    47   27   49 1
    48   28   33 1
    49   28   29 ar
    50   29   30 1
    51   30   31 2
    52   30   32 am
    53   32   33 am
    54   32   50 1
    55   33   34 2
@<TRIPOS>MOLECULE
CHEMBL472208
   51    56     0     0     0
SMALL
USER_CHARGES

@<TRIPOS>ATOM
      1 C1         -0.0166    1.3753    0.0096 C.ar      1 <0>        -0.1151
      2 C2          1.1702    2.0869    0.0021 C.ar      1 <0>        -0.0952
      3 C3          2.3823    1.4213   -0.0135 C.ar      1 <0>        -0.1090
      4 C4          2.4147    0.0403   -0.0213 C.ar      1 <0>        -0.0009
      5 C5          1.2208   -0.6823   -0.0133 C.ar      1 <0>        -0.0559
      6 C6          0.0021   -0.0041    0.0020 C.ar      1 <0>        -0.0856
      7 C7          1.2476   -2.1633   -0.0220 C.ar      1 <0>         0.0585
      8 C8          0.7443   -2.8623   -1.1176 C.ar      1 <0>        -0.1084
      9 C9          0.7641   -4.2503   -1.1370 C.ar      1 <0>         0.1732
     10 C10         1.2978   -4.9603   -0.0406 C.ar      1 <0>        -0.0279
     11 C11         1.1711   -6.3898   -0.3691 C.ar      1 <0>        -0.0951
     12 C12         1.5141   -7.5614    0.3052 C.ar      1 <0>        -0.0743
     13 C13         1.2616   -8.7878   -0.2800 C.ar      1 <0>         0.0790
     14 C14         0.6683   -8.8531   -1.5363 C.ar      1 <0>        -0.0939
     15 C15         0.3265   -7.7006   -2.2102 C.ar      1 <0>        -0.1251
     16 C16         0.5722   -6.4571   -1.6364 C.ar      1 <0>         0.1411
     17 N1          0.3368   -5.1656   -2.0786 N.pl3     1 <0>        -0.4932
     18 C17        -0.2788   -4.8200   -3.3623 C.3       1 <0>         0.1348
     19 C18         0.8102   -4.6727   -4.4269 C.3       1 <0>        -0.4926
     20 S1          0.0480   -4.2447   -6.0164 S.o       1 <0>         1.4240
     21 O1         -0.4717   -2.9237   -5.9520 O.2       1 <0>        -0.8221
     22 C19         1.4135   -4.1122   -7.1220 C.2       1 <0>        -0.0647
     23 N2          1.9190   -5.0832   -7.8385 N.2       1 <0>        -0.4698
     24 H1          1.9671   -2.1148   -6.9993 H         1 <0>         0.4472
     25 C20         2.9424   -4.6272   -8.5596 C.2       1 <0>         0.1976
     26 N3          3.1031   -3.3541   -8.3109 N.2       1 <0>        -0.2909
     27 N4          2.1141   -2.9944   -7.3809 N.pl3     1 <0>        -0.4406
     28 O2          1.5943   -9.9330    0.3737 O.3       1 <0>        -0.4931
     29 C21         1.8044   -4.2673    1.0595 C.ar      1 <0>        -0.0802
     30 C22         1.7840   -2.8596    1.0679 C.ar      1 <0>        -0.1506
     31 C23         2.3884   -2.4533    2.3485 C.2       1 <0>         0.5790
     32 O3          2.5449   -1.3094    2.7274 O.2       1 <0>        -0.4470
     33 N5          2.7379   -3.5599    3.0287 N.am      1 <0>        -0.6803
     34 C24         2.4184   -4.6701    2.3393 C.2       1 <0>         0.5794
     35 O4          2.6139   -5.8124    2.7038 O.2       1 <0>        -0.4555
     36 Cl1         3.9368   -0.7943   -0.0415 Cl        1 <0>        -0.0620
     37 H2         -0.9598    1.9012    0.0260 H         1 <0>         0.1343
     38 H3          1.1498    3.1667    0.0081 H         1 <0>         0.1353
     39 H4          3.3052    1.9822   -0.0201 H         1 <0>         0.1370
     40 H5         -0.9252   -0.5577    0.0083 H         1 <0>         0.1351
     41 H6          0.3356   -2.3202   -1.9575 H         1 <0>         0.1434
     42 H7          1.9754   -7.5105    1.2804 H         1 <0>         0.1472
     43 H8          0.4742   -9.8149   -1.9876 H         1 <0>         0.1416
     44 H9         -0.1334   -7.7627   -3.1854 H         1 <0>         0.1377
     45 H10        -0.9710   -5.6085   -3.6574 H         1 <0>         0.1119
     46 H11        -0.8204   -3.8791   -3.2640 H         1 <0>         0.0992
     47 H12         1.5024   -3.8841   -4.1319 H         1 <0>         0.1019
     48 H13         1.3518   -5.6135   -4.5253 H         1 <0>         0.1386
     49 H14         3.5424   -5.2145   -9.2390 H         1 <0>         0.2294
     50 H15         0.8923  -10.2803    0.9408 H         1 <0>         0.3909
     51 H16         3.1568   -3.5579    3.9036 H         1 <0>         0.4319
@<TRIPOS>BOND
     1    1    6 ar
     2    1    2 ar
     3    1   37 1
     4    2    3 ar
     5    2   38 1
     6    3    4 ar
     7    3   39 1
     8    4    5 ar
     9    4   36 1
    10    5    6 ar
    11    5    7 1
    12    6   40 1
    13    7   30 ar
    14    7    8 ar
    15    8    9 ar
    16    8   41 1
    17    9   17 1
    18    9   10 ar
    19   10   11 1
    20   10   29 ar
    21   11   16 ar
    22   11   12 ar
    23   12   13 ar
    24   12   42 1
    25   13   14 ar
    26   13   28 1
    27   14   15 ar
    28   14   43 1
    29   15   16 ar
    30   15   44 1
    31   16   17 1
    32   17   18 1
    33   18   19 1
    34   18   45 1
    35   18   46 1
    36   19   20 1
    37   19   47 1
    38   19   48 1
    39   20   21 2
    40   20   22 1
    41   22   23 2
    42   22   27 1
    43   23   25 1
    44   24   27 1
    45   25   49 1
    46   25   26 2
    47   26   27 1
    48   28   50 1
    49   29   34 1
    50   29   30 ar
    51   30   31 1
    52   31   32 2
    53   31   33 am
    54   33   34 am
    55   33   51 1
    56   34   35 2
@<TRIPOS>MOLECULE
CHEMBL469612
   64    69     0     0     0
SMALL
USER_CHARGES

@<TRIPOS>ATOM
      1 C1         -0.0166    1.3753    0.0096 C.ar      1 <0>        -0.1155
      2 C2          1.1702    2.0869    0.0021 C.ar      1 <0>        -0.0953
      3 C3          2.3823    1.4213   -0.0135 C.ar      1 <0>        -0.1088
      4 C4          2.4147    0.0403   -0.0213 C.ar      1 <0>        -0.0002
      5 C5          1.2208   -0.6823   -0.0133 C.ar      1 <0>        -0.0551
      6 C6          0.0021   -0.0041    0.0020 C.ar      1 <0>        -0.0858
      7 C7          1.2476   -2.1633   -0.0220 C.ar      1 <0>         0.0580
      8 C8          0.7443   -2.8623   -1.1176 C.ar      1 <0>        -0.1048
      9 C9          0.7641   -4.2503   -1.1370 C.ar      1 <0>         0.1728
     10 C10         1.2978   -4.9603   -0.0406 C.ar      1 <0>        -0.0273
     11 C11         1.1711   -6.3898   -0.3691 C.ar      1 <0>        -0.0980
     12 C12         1.5141   -7.5614    0.3052 C.ar      1 <0>        -0.0703
     13 C13         1.2616   -8.7878   -0.2800 C.ar      1 <0>         0.0824
     14 C14         0.6683   -8.8531   -1.5363 C.ar      1 <0>        -0.0583
     15 C15         0.3265   -7.7006   -2.2102 C.ar      1 <0>        -0.1256
     16 C16         0.5722   -6.4571   -1.6364 C.ar      1 <0>         0.1455
     17 N1          0.3368   -5.1656   -2.0786 N.pl3     1 <0>        -0.4954
     18 C17        -0.2788   -4.8200   -3.3623 C.3       1 <0>         0.1130
     19 C18         0.8102   -4.6727   -4.4269 C.3       1 <0>         0.0581
     20 O1          0.2098   -4.3355   -5.6790 O.3       1 <0>        -0.5681
     21 C19         0.3975  -10.1952   -2.1661 C.3       1 <0>        -0.0726
     22 C20         1.6870  -10.7371   -2.7860 C.3       1 <0>        -0.1100
     23 C21         1.4121  -12.0997   -3.4254 C.3       1 <0>        -0.1335
     24 C22         2.7016  -12.6416   -4.0454 C.3       1 <0>         0.1040
     25 N2          2.4384  -13.9463   -4.6575 N.pl3     1 <0>        -0.4486
     26 C23         2.5401  -15.1528   -4.0309 C.2       1 <0>        -0.0165
     27 C24         2.2199  -16.1169   -4.9177 C.2       1 <0>        -0.2031
     28 C25         1.9091  -15.4822   -6.1366 C.2       1 <0>        -0.2025
     29 C26         2.0455  -14.1542   -5.9465 C.2       1 <0>        -0.0184
     30 O2          1.5943   -9.9330    0.3737 O.3       1 <0>        -0.4881
     31 C27         1.8044   -4.2673    1.0595 C.ar      1 <0>        -0.0811
     32 C28         1.7840   -2.8596    1.0679 C.ar      1 <0>        -0.1499
     33 C29         2.3884   -2.4533    2.3485 C.2       1 <0>         0.5791
     34 O3          2.5449   -1.3094    2.7274 O.2       1 <0>        -0.4470
     35 N3          2.7379   -3.5599    3.0287 N.am      1 <0>        -0.6805
     36 C30         2.4184   -4.6701    2.3393 C.2       1 <0>         0.5796
     37 O4          2.6139   -5.8124    2.7038 O.2       1 <0>        -0.4565
     38 Cl1         3.9368   -0.7943   -0.0415 Cl        1 <0>        -0.0616
     39 H1         -0.9598    1.9012    0.0260 H         1 <0>         0.1338
     40 H2          1.1498    3.1667    0.0081 H         1 <0>         0.1350
     41 H3          3.3052    1.9822   -0.0201 H         1 <0>         0.1370
     42 H4         -0.9252   -0.5577    0.0083 H         1 <0>         0.1348
     43 H5          0.3356   -2.3202   -1.9575 H         1 <0>         0.1456
     44 H6          1.9754   -7.5105    1.2804 H         1 <0>         0.1484
     45 H7         -0.1334   -7.7627   -3.1854 H         1 <0>         0.1318
     46 H8         -0.9710   -5.6085   -3.6574 H         1 <0>         0.1021
     47 H9         -0.8204   -3.8791   -3.2640 H         1 <0>         0.1010
     48 H10         1.5024   -3.8841   -4.1319 H         1 <0>         0.0542
     49 H11         1.3518   -5.6135   -4.5253 H         1 <0>         0.0543
     50 H12         0.8426   -4.2262   -6.4019 H         1 <0>         0.3909
     51 H13         0.0412  -10.8887   -1.4044 H         1 <0>         0.0791
     52 H14        -0.3607  -10.0863   -2.9416 H         1 <0>         0.0741
     53 H15         2.0434  -10.0436   -3.5477 H         1 <0>         0.0646
     54 H16         2.4452  -10.8460   -2.0105 H         1 <0>         0.0761
     55 H17         1.0558  -12.7932   -2.6637 H         1 <0>         0.0719
     56 H18         0.6539  -11.9908   -4.2009 H         1 <0>         0.0695
     57 H19         3.0580  -11.9481   -4.8070 H         1 <0>         0.0876
     58 H20         3.4598  -12.7505   -3.2698 H         1 <0>         0.0895
     59 H21         2.8282  -15.3095   -3.0018 H         1 <0>         0.1590
     60 H22         2.2045  -17.1801   -4.7285 H         1 <0>         0.1338
     61 H23         1.6116  -15.9695   -7.0534 H         1 <0>         0.1336
     62 H24         1.8752  -13.3876   -6.6879 H         1 <0>         0.1581
     63 H25         0.8923  -10.2803    0.9408 H         1 <0>         0.3883
     64 H26         3.1568   -3.5579    3.9036 H         1 <0>         0.4317
@<TRIPOS>BOND
     1    1    6 ar
     2    1    2 ar
     3    1   39 1
     4    2    3 ar
     5    2   40 1
     6    3    4 ar
     7    3   41 1
     8    4    5 ar
     9    4   38 1
    10    5    6 ar
    11    5    7 1
    12    6   42 1
    13    7   32 ar
    14    7    8 ar
    15    8    9 ar
    16    8   43 1
    17    9   17 1
    18    9   10 ar
    19   10   11 1
    20   10   31 ar
    21   11   16 ar
    22   11   12 ar
    23   12   13 ar
    24   12   44 1
    25   13   14 ar
    26   13   30 1
    27   14   15 ar
    28   14   21 1
    29   15   16 ar
    30   15   45 1
    31   16   17 1
    32   17   18 1
    33   18   19 1
    34   18   46 1
    35   18   47 1
    36   19   20 1
    37   19   48 1
    38   19   49 1
    39   20   50 1
    40   21   22 1
    41   21   51 1
    42   21   52 1
    43   22   23 1
    44   22   53 1
    45   22   54 1
    46   23   24 1
    47   23   55 1
    48   23   56 1
    49   24   25 1
    50   24   57 1
    51   24   58 1
    52   25   29 1
    53   25   26 1
    54   26   27 2
    55   26   59 1
    56   27   28 1
    57   27   60 1
    58   28   29 2
    59   28   61 1
    60   29   62 1
    61   30   63 1
    62   31   36 1
    63   31   32 ar
    64   32   33 1
    65   33   34 2
    66   33   35 am
    67   35   36 am
    68   35   64 1
    69   36   37 2
@<TRIPOS>MOLECULE
CHEMBL378347
   36    40     0     0     0
SMALL
USER_CHARGES

@<TRIPOS>ATOM
      1 C1         -0.0168    1.3863    0.0097 C.ar      1 <0>        -0.0949
      2 C2          1.1608    2.1028    0.0023 C.ar      1 <0>        -0.1247
      3 C3          2.3825    1.4380   -0.0129 C.ar      1 <0>         0.1391
      4 C4          2.4031    0.0344   -0.0206 C.ar      1 <0>        -0.0971
      5 C5          1.2070   -0.6819   -0.0126 C.ar      1 <0>        -0.0747
      6 C6          0.0021   -0.0041    0.0020 C.ar      1 <0>         0.0797
      7 O1         -1.1671   -0.6986    0.0099 O.3       1 <0>        -0.4928
      8 C7          3.8202   -0.3638   -0.0367 C.ar      1 <0>        -0.0306
      9 C8          4.5703    0.8310   -0.0378 C.ar      1 <0>         0.1757
     10 N1          3.6901    1.8949   -0.0234 N.pl3     1 <0>        -0.6063
     11 H1          3.9504    2.8293   -0.0207 H         1 <0>         0.4266
     12 C9          5.9579    0.7758   -0.0523 C.ar      1 <0>        -0.1069
     13 C10         6.6160   -0.4520   -0.0662 C.ar      1 <0>         0.0568
     14 C11         5.8797   -1.6425   -0.0652 C.ar      1 <0>        -0.1596
     15 C12         4.4732   -1.5975   -0.0497 C.ar      1 <0>        -0.0776
     16 C13         4.0236   -3.0030   -0.0532 C.2       1 <0>         0.5787
     17 O2          2.8681   -3.3780   -0.0442 O.2       1 <0>        -0.4533
     18 N2          5.1077   -3.7993   -0.0684 N.am      1 <0>        -0.6792
     19 C14         6.2393   -3.0722   -0.0776 C.2       1 <0>         0.5800
     20 O3          7.3690   -3.5190   -0.0927 O.2       1 <0>        -0.4525
     21 C15         8.0971   -0.4977   -0.0825 C.ar      1 <0>        -0.0203
     22 C16         8.8012   -1.3002    0.8208 C.ar      1 <0>        -0.1258
     23 C17        10.1801   -1.3133    0.7704 C.ar      1 <0>         0.1036
     24 N3         10.8324   -0.5828   -0.1134 N.ar      1 <0>        -0.4785
     25 C18        10.2071    0.1874   -0.9827 C.ar      1 <0>         0.0985
     26 C19         8.8291    0.2561   -1.0055 C.ar      1 <0>        -0.1533
     27 H2         -0.9617    1.9091    0.0260 H         1 <0>         0.1410
     28 H3          1.1348    3.1825    0.0079 H         1 <0>         0.1354
     29 H4          1.2216   -1.7618   -0.0189 H         1 <0>         0.1480
     30 H5         -1.5140   -0.8947   -0.8712 H         1 <0>         0.3913
     31 H6          6.5309    1.6912   -0.0531 H         1 <0>         0.1485
     32 H7          5.0774   -4.7689   -0.0736 H         1 <0>         0.4329
     33 H8          8.2736   -1.9006    1.5472 H         1 <0>         0.1351
     34 H9         10.7327   -1.9296    1.4640 H         1 <0>         0.1597
     35 H10        10.7812    0.7689   -1.6888 H         1 <0>         0.1595
     36 H11         8.3235    0.8855   -1.7229 H         1 <0>         0.1383
@<TRIPOS>BOND
     1    1    6 ar
     2    1    2 ar
     3    1   27 1
     4    2    3 ar
     5    2   28 1
     6    3   10 1
     7    3    4 ar
     8    4    5 ar
     9    4    8 1
    10    5    6 ar
    11    5   29 1
    12    6    7 1
    13    7   30 1
    14    8   15 ar
    15    8    9 ar
    16    9   10 1
    17    9   12 ar
    18   10   11 1
    19   12   13 ar
    20   12   31 1
    21   13   14 ar
    22   13   21 1
    23   14   19 1
    24   14   15 ar
    25   15   16 1
    26   16   17 2
    27   16   18 am
    28   18   19 am
    29   18   32 1
    30   19   20 2
    31   21   26 ar
    32   21   22 ar
    33   22   23 ar
    34   22   33 1
    35   23   24 ar
    36   23   34 1
    37   24   25 ar
    38   25   26 ar
    39   25   35 1
    40   26   36 1
@<TRIPOS>MOLECULE
CHEMBL487757
   52    57     0     0     0
SMALL
USER_CHARGES

@<TRIPOS>ATOM
      1 C1         -0.0166    1.3753    0.0096 C.ar      1 <0>        -0.1148
      2 C2          1.1702    2.0869    0.0021 C.ar      1 <0>        -0.0941
      3 C3          2.3823    1.4213   -0.0135 C.ar      1 <0>        -0.1083
      4 C4          2.4147    0.0403   -0.0213 C.ar      1 <0>        -0.0005
      5 C5          1.2208   -0.6823   -0.0133 C.ar      1 <0>        -0.0577
      6 C6          0.0021   -0.0041    0.0020 C.ar      1 <0>        -0.0853
      7 C7          1.2476   -2.1633   -0.0220 C.ar      1 <0>         0.0606
      8 C8          0.7443   -2.8623   -1.1176 C.ar      1 <0>        -0.1099
      9 C9          0.7641   -4.2503   -1.1370 C.ar      1 <0>         0.1703
     10 C10         1.2978   -4.9603   -0.0406 C.ar      1 <0>        -0.0249
     11 C11         1.1711   -6.3898   -0.3691 C.ar      1 <0>        -0.0913
     12 C12         1.5141   -7.5614    0.3052 C.ar      1 <0>        -0.0739
     13 C13         1.2616   -8.7878   -0.2800 C.ar      1 <0>         0.0833
     14 C14         0.6683   -8.8531   -1.5363 C.ar      1 <0>        -0.0926
     15 C15         0.3265   -7.7006   -2.2102 C.ar      1 <0>        -0.1270
     16 C16         0.5722   -6.4571   -1.6364 C.ar      1 <0>         0.1365
     17 N1          0.3368   -5.1656   -2.0786 N.pl3     1 <0>        -0.4928
     18 C17        -0.2788   -4.8200   -3.3623 C.3       1 <0>         0.1292
     19 C18         0.8102   -4.6727   -4.4269 C.3       1 <0>        -0.6469
     20 S1          0.0480   -4.2447   -6.0164 S.o2      1 <0>         2.5944
     21 O1         -0.7187   -5.3382   -6.5017 O.2       1 <0>        -0.8859
     22 O2         -0.5097   -2.9391   -5.9560 O.2       1 <0>        -0.9016
     23 N2          1.3151   -4.1144   -7.0746 N.pl3     1 <0>        -0.6743
     24 C19         2.0180   -2.9878   -7.3349 C.2       1 <0>        -0.0167
     25 C20         2.9530   -3.3302   -8.2517 C.2       1 <0>        -0.0261
     26 N3          2.7787   -4.6322   -8.5041 N.2       1 <0>        -0.2233
     27 N4          1.8042   -5.0685   -7.7867 N.2       1 <0>        -0.0301
     28 O3          1.5943   -9.9330    0.3737 O.3       1 <0>        -0.4922
     29 C21         1.8044   -4.2673    1.0595 C.ar      1 <0>        -0.0791
     30 C22         1.7840   -2.8596    1.0679 C.ar      1 <0>        -0.1477
     31 C23         2.3884   -2.4533    2.3485 C.2       1 <0>         0.5789
     32 O4          2.5449   -1.3094    2.7274 O.2       1 <0>        -0.4452
     33 N5          2.7379   -3.5599    3.0287 N.am      1 <0>        -0.6798
     34 C24         2.4184   -4.6701    2.3393 C.2       1 <0>         0.5791
     35 O5          2.6139   -5.8124    2.7038 O.2       1 <0>        -0.4544
     36 Cl1         3.9368   -0.7943   -0.0415 Cl        1 <0>        -0.0616
     37 H1         -0.9598    1.9012    0.0260 H         1 <0>         0.1345
     38 H2          1.1498    3.1667    0.0081 H         1 <0>         0.1356
     39 H3          3.3052    1.9822   -0.0201 H         1 <0>         0.1375
     40 H4         -0.9252   -0.5577    0.0083 H         1 <0>         0.1353
     41 H5          0.3356   -2.3202   -1.9575 H         1 <0>         0.1471
     42 H6          1.9754   -7.5105    1.2804 H         1 <0>         0.1494
     43 H7          0.4742   -9.8149   -1.9876 H         1 <0>         0.1428
     44 H8         -0.1334   -7.7627   -3.1854 H         1 <0>         0.1357
     45 H9         -0.9710   -5.6085   -3.6574 H         1 <0>         0.1168
     46 H10        -0.8204   -3.8791   -3.2640 H         1 <0>         0.1141
     47 H11         1.5024   -3.8841   -4.1319 H         1 <0>         0.1529
     48 H12         1.3518   -5.6135   -4.5253 H         1 <0>         0.1576
     49 H13         1.8637   -2.0118   -6.8990 H         1 <0>         0.2151
     50 H14         3.6939   -2.6799   -8.6929 H         1 <0>         0.2065
     51 H15         0.8923  -10.2803    0.9408 H         1 <0>         0.3922
     52 H16         3.1568   -3.5579    3.9036 H         1 <0>         0.4325
@<TRIPOS>BOND
     1    1    6 ar
     2    1    2 ar
     3    1   37 1
     4    2    3 ar
     5    2   38 1
     6    3    4 ar
     7    3   39 1
     8    4    5 ar
     9    4   36 1
    10    5    6 ar
    11    5    7 1
    12    6   40 1
    13    7   30 ar
    14    7    8 ar
    15    8    9 ar
    16    8   41 1
    17    9   17 1
    18    9   10 ar
    19   10   11 1
    20   10   29 ar
    21   11   16 ar
    22   11   12 ar
    23   12   13 ar
    24   12   42 1
    25   13   14 ar
    26   13   28 1
    27   14   15 ar
    28   14   43 1
    29   15   16 ar
    30   15   44 1
    31   16   17 1
    32   17   18 1
    33   18   19 1
    34   18   45 1
    35   18   46 1
    36   19   20 1
    37   19   47 1
    38   19   48 1
    39   20   21 2
    40   20   22 2
    41   20   23 1
    42   23   27 1
    43   23   24 1
    44   24   25 2
    45   24   49 1
    46   25   26 1
    47   25   50 1
    48   26   27 2
    49   28   51 1
    50   29   34 1
    51   29   30 ar
    52   30   31 1
    53   31   32 2
    54   31   33 am
    55   33   34 am
    56   33   52 1
    57   34   35 2
@<TRIPOS>MOLECULE
CHEMBL515352
   59    64     0     0     0
SMALL
USER_CHARGES

@<TRIPOS>ATOM
      1 C1         -0.0167    1.3781    0.0096 C.ar      1 <0>        -0.0820
      2 C2          1.1709    2.0855    0.0021 C.ar      1 <0>        -0.1464
      3 C3          2.3773    1.4107   -0.0130 C.ar      1 <0>        -0.0241
      4 C4          2.3960    0.0285   -0.0201 C.ar      1 <0>        -0.6303
      5 C5          1.2084   -0.6789   -0.0117 C.ar      1 <0>        -0.0241
      6 C6          0.0021   -0.0041    0.0020 C.ar      1 <0>        -0.1464
      7 S1          3.9337   -0.8316   -0.0405 S.o2      1 <0>         2.6490
      8 O1          3.6744   -2.1140   -0.5951 O.2       1 <0>        -1.0043
      9 O2          4.8903    0.0598   -0.5970 O.2       1 <0>        -1.0039
     10 N1          4.3776   -1.0785    1.5357 N.2       1 <0>        -1.0650
     11 C7          5.4787   -1.6942    1.8070 C.2       1 <0>         0.4909
     12 O3          6.2683   -2.1368    0.8065 O.3       1 <0>        -0.7170
     13 C8          5.8826   -1.9189    3.2414 C.3       1 <0>        -0.1009
     14 C9          4.8212   -1.3244    4.1692 C.3       1 <0>         0.1251
     15 N2          5.2139   -1.5428    5.5636 N.pl3     1 <0>        -0.4902
     16 C10         4.8757   -2.6561    6.3156 C.ar      1 <0>         0.1492
     17 C11         4.1361   -3.7963    6.0177 C.ar      1 <0>        -0.1206
     18 C12         3.9505   -4.7702    6.9749 C.ar      1 <0>        -0.0972
     19 C13         4.4973   -4.6263    8.2457 C.ar      1 <0>         0.0679
     20 C14         5.2349   -3.5004    8.5598 C.ar      1 <0>        -0.0750
     21 C15         5.4282   -2.5100    7.5972 C.ar      1 <0>        -0.1015
     22 C16         6.1414   -1.2222    7.6019 C.ar      1 <0>        -0.0321
     23 C17         5.9787   -0.6710    6.3133 C.ar      1 <0>         0.1801
     24 C18         6.5530    0.5561    6.0102 C.ar      1 <0>        -0.1005
     25 C19         7.2929    1.2466    6.9684 C.ar      1 <0>         0.0522
     26 C20         7.4629    0.7049    8.2483 C.ar      1 <0>        -0.1597
     27 C21         6.8769   -0.5347    8.5681 C.ar      1 <0>        -0.0847
     28 C22         7.2446   -0.8059    9.9711 C.2       1 <0>         0.5814
     29 O4          6.9341   -1.7928   10.6079 O.2       1 <0>        -0.4618
     30 N3          7.9814    0.2234   10.4266 N.am      1 <0>        -0.6830
     31 C23         8.1612    1.1490    9.4671 C.2       1 <0>         0.5821
     32 O5          8.7853    2.1844    9.5890 O.2       1 <0>        -0.4551
     33 C24         7.9005    2.5550    6.6322 C.ar      1 <0>        -0.0475
     34 C25         7.0878    3.6510    6.3429 C.ar      1 <0>        -0.0850
     35 C26         7.6594    4.8671    6.0309 C.ar      1 <0>        -0.1164
     36 C27         9.0364    5.0018    6.0045 C.ar      1 <0>        -0.0995
     37 C28         9.8486    3.9196    6.2898 C.ar      1 <0>        -0.1106
     38 C29         9.2886    2.6978    6.6093 C.ar      1 <0>         0.0009
     39 Cl1        10.3090    1.3416    6.9743 Cl        1 <0>        -0.0625
     40 O6          4.3055   -5.5948    9.1809 O.3       1 <0>        -0.4953
     41 H1         -0.9591    1.9053    0.0259 H         1 <0>         0.1233
     42 H2          1.1563    3.1654    0.0076 H         1 <0>         0.1261
     43 H3          3.3051    1.9634   -0.0196 H         1 <0>         0.1364
     44 H4          1.2231   -1.7588   -0.0176 H         1 <0>         0.1363
     45 H5         -0.9258   -0.5567    0.0082 H         1 <0>         0.1261
     46 H6          5.9723   -2.9886    3.4303 H         1 <0>         0.0861
     47 H7          6.8412   -1.4352    3.4289 H         1 <0>         0.0855
     48 H8          4.7315   -0.2546    3.9803 H         1 <0>         0.1038
     49 H9          3.8626   -1.8081    3.9817 H         1 <0>         0.1057
     50 H10         3.7064   -3.9183    5.0344 H         1 <0>         0.1373
     51 H11         3.3753   -5.6526    6.7364 H         1 <0>         0.1366
     52 H12         5.6597   -3.3881    9.5464 H         1 <0>         0.1438
     53 H13         6.4258    0.9784    5.0244 H         1 <0>         0.1495
     54 H14         8.3453    0.2841   11.3238 H         1 <0>         0.4277
     55 H15         6.0129    3.5476    6.3627 H         1 <0>         0.1355
     56 H16         7.0307    5.7161    5.8064 H         1 <0>         0.1317
     57 H17         9.4787    5.9562    5.7597 H         1 <0>         0.1320
     58 H18        10.9226    4.0309    6.2672 H         1 <0>         0.1345
     59 H19         4.9859   -6.2819    9.1808 H         1 <0>         0.3858
@<TRIPOS>BOND
     1    1    6 ar
     2    1    2 ar
     3    1   41 1
     4    2    3 ar
     5    2   42 1
     6    3    4 ar
     7    3   43 1
     8    4    5 ar
     9    4    7 1
    10    5    6 ar
    11    5   44 1
    12    6   45 1
    13    7    8 2
    14    7    9 2
    15    7   10 1
    16   10   11 2
    17   11   12 1
    18   11   13 1
    19   13   14 1
    20   13   46 1
    21   13   47 1
    22   14   15 1
    23   14   48 1
    24   14   49 1
    25   15   23 1
    26   15   16 1
    27   16   21 ar
    28   16   17 ar
    29   17   18 ar
    30   17   50 1
    31   18   19 ar
    32   18   51 1
    33   19   20 ar
    34   19   40 1
    35   20   21 ar
    36   20   52 1
    37   21   22 1
    38   22   27 ar
    39   22   23 ar
    40   23   24 ar
    41   24   25 ar
    42   24   53 1
    43   25   26 ar
    44   25   33 1
    45   26   31 1
    46   26   27 ar
    47   27   28 1
    48   28   29 2
    49   28   30 am
    50   30   31 am
    51   30   54 1
    52   31   32 2
    53   33   38 ar
    54   33   34 ar
    55   34   35 ar
    56   34   55 1
    57   35   36 ar
    58   35   56 1
    59   36   37 ar
    60   36   57 1
    61   37   38 ar
    62   37   58 1
    63   38   39 1
    64   40   59 1
@<TRIPOS>MOLECULE
CHEMBL271084
   65    70     0     0     0
SMALL
USER_CHARGES

@<TRIPOS>ATOM
      1 C1         -0.0178    1.4608    0.0101 C.3       1 <0>         0.0780
      2 N1          0.0021   -0.0041    0.0020 N.pl3     1 <0>        -0.5016
      3 C2          0.0079   -0.7889   -1.1396 C.ar      1 <0>         0.1471
      4 C3         -0.0021   -0.4698   -2.4938 C.ar      1 <0>        -0.1251
      5 C4          0.0075   -1.4711   -3.4407 C.ar      1 <0>        -0.0697
      6 C5          0.0268   -2.8077   -3.0564 C.ar      1 <0>         0.0753
      7 C6          0.0370   -3.1438   -1.7158 C.ar      1 <0>        -0.0670
      8 C7          0.0279   -2.1370   -0.7508 C.ar      1 <0>        -0.0938
      9 C8          0.0342   -2.1487    0.7213 C.ar      1 <0>        -0.0347
     10 C9          0.0236   -0.7987    1.1313 C.ar      1 <0>         0.1716
     11 C10         0.0318   -0.4884    2.4845 C.ar      1 <0>        -0.1032
     12 C11         0.0542   -1.5008    3.4420 C.ar      1 <0>         0.0624
     13 C12         0.0692   -2.8431    3.0439 C.ar      1 <0>        -0.1469
     14 C13         0.0521   -3.1680    1.6740 C.ar      1 <0>        -0.0800
     15 C14         0.0726   -4.6419    1.6077 C.2       1 <0>         0.5807
     16 O1          0.0776   -5.3063    0.5906 O.2       1 <0>        -0.4596
     17 N2          0.0849   -5.1263    2.8626 N.am      1 <0>        -0.6797
     18 C15         0.0932   -4.1279    3.7643 C.2       1 <0>         0.5772
     19 O2          0.1061   -4.2634    4.9718 O.2       1 <0>        -0.4415
     20 C16         0.0628   -1.1564    4.8826 C.ar      1 <0>        -0.0598
     21 C17        -1.0364   -0.5178    5.4565 C.ar      1 <0>        -0.0855
     22 C18        -1.0229   -0.1999    6.7989 C.ar      1 <0>        -0.1147
     23 C19         0.0781   -0.5132    7.5765 C.ar      1 <0>        -0.0928
     24 C20         1.1717   -1.1459    7.0144 C.ar      1 <0>        -0.1081
     25 C21         1.1683   -1.4748    5.6727 C.ar      1 <0>         0.0003
     26 Cl1         2.5387   -2.2756    4.9695 Cl        1 <0>        -0.0626
     27 O3          0.0352   -3.7856   -4.0014 O.3       1 <0>        -0.4869
     28 C22        -0.0035   -1.1148   -4.9049 C.3       1 <0>        -0.0748
     29 C23         1.4163   -1.2183   -5.4656 C.3       1 <0>        -0.1107
     30 C24         1.4051   -0.8566   -6.9522 C.3       1 <0>        -0.1476
     31 C25         2.8249   -0.9601   -7.5130 C.3       1 <0>        -0.0063
     32 N3          2.8142   -0.6128   -8.9403 N.4       1 <0>        -0.3950
     33 C26         2.5187    0.8325   -9.1135 C.3       1 <0>        -0.0069
     34 C27         3.0855    1.1439  -10.5215 C.3       1 <0>        -0.1463
     35 C28         4.3690    0.2839  -10.5754 C.3       1 <0>        -0.1458
     36 C29         4.1557   -0.8231   -9.5264 C.3       1 <0>        -0.0088
     37 H1          1.0048    1.8381    0.0023 H         1 <0>         0.0746
     38 H2         -0.5450    1.8219   -0.8730 H         1 <0>         0.0864
     39 H3         -0.5280    1.8123    0.9069 H         1 <0>         0.0886
     40 H4         -0.0178    0.5647   -2.8036 H         1 <0>         0.1307
     41 H5          0.0520   -4.1815   -1.4168 H         1 <0>         0.1498
     42 H6          0.0211    0.5452    2.7974 H         1 <0>         0.1469
     43 H7          0.0987   -6.0698    3.0874 H         1 <0>         0.4330
     44 H8         -1.8964   -0.2722    4.8511 H         1 <0>         0.1345
     45 H9         -1.8735    0.2949    7.2439 H         1 <0>         0.1349
     46 H10         0.0834   -0.2620    8.6269 H         1 <0>         0.1365
     47 H11         2.0281   -1.3874    7.6264 H         1 <0>         0.1382
     48 H12         0.9210   -4.0568   -4.2788 H         1 <0>         0.3822
     49 H13        -0.6570   -1.8027   -5.4413 H         1 <0>         0.0875
     50 H14        -0.3694   -0.0955   -5.0281 H         1 <0>         0.0768
     51 H15         2.0698   -0.5304   -4.9292 H         1 <0>         0.0752
     52 H16         1.7822   -2.2377   -5.3425 H         1 <0>         0.0736
     53 H17         0.7516   -1.5445   -7.4886 H         1 <0>         0.0891
     54 H18         1.0393    0.1627   -7.0754 H         1 <0>         0.0868
     55 H19         3.4785   -0.2722   -6.9765 H         1 <0>         0.1283
     56 H20         3.1908   -1.9795   -7.3898 H         1 <0>         0.1298
     57 H21         1.4439    1.0117   -9.0832 H         1 <0>         0.1349
     58 H22         3.0299    1.4235   -8.3536 H         1 <0>         0.1330
     59 H23         2.3830    0.8375  -11.2965 H         1 <0>         0.0980
     60 H24         3.3265    2.2028  -10.6146 H         1 <0>         0.1161
     61 H25         4.4904   -0.1527  -11.5668 H         1 <0>         0.1050
     62 H26         5.2396    0.8869  -10.3175 H         1 <0>         0.1033
     63 H27         4.9163   -0.7496   -8.7491 H         1 <0>         0.1300
     64 H28         4.2029   -1.8017  -10.0043 H         1 <0>         0.1319
     65 H29         2.1296   -1.1700   -9.4292 H         1 <0>         0.4269
@<TRIPOS>BOND
     1    1    2 1
     2    1   37 1
     3    1   38 1
     4    1   39 1
     5    2   10 1
     6    2    3 1
     7    3    8 ar
     8    3    4 ar
     9    4    5 ar
    10    4   40 1
    11    5    6 ar
    12    5   28 1
    13    6    7 ar
    14    6   27 1
    15    7    8 ar
    16    7   41 1
    17    8    9 1
    18    9   14 ar
    19    9   10 ar
    20   10   11 ar
    21   11   12 ar
    22   11   42 1
    23   12   13 ar
    24   12   20 1
    25   13   18 1
    26   13   14 ar
    27   14   15 1
    28   15   16 2
    29   15   17 am
    30   17   18 am
    31   17   43 1
    32   18   19 2
    33   20   25 ar
    34   20   21 ar
    35   21   22 ar
    36   21   44 1
    37   22   23 ar
    38   22   45 1
    39   23   24 ar
    40   23   46 1
    41   24   25 ar
    42   24   47 1
    43   25   26 1
    44   27   48 1
    45   28   29 1
    46   28   49 1
    47   28   50 1
    48   29   30 1
    49   29   51 1
    50   29   52 1
    51   30   31 1
    52   30   53 1
    53   30   54 1
    54   31   32 1
    55   31   55 1
    56   31   56 1
    57   32   36 1
    58   32   33 1
    59   32   65 1
    60   33   34 1
    61   33   57 1
    62   33   58 1
    63   34   35 1
    64   34   59 1
    65   34   60 1
    66   35   36 1
    67   35   61 1
    68   35   62 1
    69   36   63 1
    70   36   64 1
@<TRIPOS>MOLECULE
CHEMBL529669
   56    61     0     0     0
SMALL
USER_CHARGES

@<TRIPOS>ATOM
      1 C1         -0.0166    1.3753    0.0096 C.ar      1 <0>        -0.1156
      2 C2          1.1702    2.0869    0.0021 C.ar      1 <0>        -0.0956
      3 C3          2.3823    1.4213   -0.0135 C.ar      1 <0>        -0.1089
      4 C4          2.4147    0.0403   -0.0213 C.ar      1 <0>        -0.0001
      5 C5          1.2208   -0.6823   -0.0133 C.ar      1 <0>        -0.0542
      6 C6          0.0021   -0.0041    0.0020 C.ar      1 <0>        -0.0857
      7 C7          1.2476   -2.1633   -0.0220 C.ar      1 <0>         0.0580
      8 C8          0.7443   -2.8623   -1.1176 C.ar      1 <0>        -0.1041
      9 C9          0.7641   -4.2503   -1.1370 C.ar      1 <0>         0.1750
     10 C10         1.2978   -4.9603   -0.0406 C.ar      1 <0>        -0.0296
     11 C11         1.1711   -6.3898   -0.3691 C.ar      1 <0>        -0.0949
     12 C12         1.5141   -7.5614    0.3052 C.ar      1 <0>        -0.0733
     13 C13         1.2616   -8.7878   -0.2800 C.ar      1 <0>         0.0780
     14 C14         0.6683   -8.8531   -1.5363 C.ar      1 <0>        -0.0950
     15 C15         0.3265   -7.7006   -2.2102 C.ar      1 <0>        -0.1259
     16 C16         0.5722   -6.4571   -1.6364 C.ar      1 <0>         0.1417
     17 N1          0.3368   -5.1656   -2.0786 N.pl3     1 <0>        -0.4964
     18 C17        -0.2788   -4.8200   -3.3623 C.3       1 <0>         0.1158
     19 C18         0.8102   -4.6727   -4.4269 C.3       1 <0>         0.0356
     20 N2          0.1929   -4.3261   -5.7141 N.3       1 <0>        -0.5327
     21 C19        -0.6320   -5.4337   -6.2180 C.3       1 <0>         0.0105
     22 C20        -1.3021   -5.0091   -7.5274 C.3       1 <0>         0.0633
     23 O1         -0.2972   -4.6125   -8.4646 O.3       1 <0>        -0.3836
     24 C21         0.5243   -3.5353   -8.0064 C.3       1 <0>         0.0635
     25 C22         1.2129   -3.9450   -6.7018 C.3       1 <0>         0.0185
     26 O2          1.5943   -9.9330    0.3737 O.3       1 <0>        -0.4929
     27 C23         1.8044   -4.2673    1.0595 C.ar      1 <0>        -0.0804
     28 C24         1.7840   -2.8596    1.0679 C.ar      1 <0>        -0.1511
     29 C25         2.3884   -2.4533    2.3485 C.2       1 <0>         0.5792
     30 O3          2.5449   -1.3094    2.7274 O.2       1 <0>        -0.4476
     31 N3          2.7379   -3.5599    3.0287 N.am      1 <0>        -0.6807
     32 C26         2.4184   -4.6701    2.3393 C.2       1 <0>         0.5792
     33 O4          2.6139   -5.8124    2.7038 O.2       1 <0>        -0.4566
     34 Cl1         3.9368   -0.7943   -0.0415 Cl        1 <0>        -0.0616
     35 H1         -0.9598    1.9012    0.0260 H         1 <0>         0.1335
     36 H2          1.1498    3.1667    0.0081 H         1 <0>         0.1347
     37 H3          3.3052    1.9822   -0.0201 H         1 <0>         0.1367
     38 H4         -0.9252   -0.5577    0.0083 H         1 <0>         0.1346
     39 H5          0.3356   -2.3202   -1.9575 H         1 <0>         0.1462
     40 H6          1.9754   -7.5105    1.2804 H         1 <0>         0.1479
     41 H7          0.4742   -9.8149   -1.9876 H         1 <0>         0.1393
     42 H8         -0.1334   -7.7627   -3.1854 H         1 <0>         0.1297
     43 H9         -0.9710   -5.6085   -3.6574 H         1 <0>         0.0937
     44 H10        -0.8204   -3.8791   -3.2640 H         1 <0>         0.1025
     45 H11         1.5024   -3.8841   -4.1319 H         1 <0>         0.0853
     46 H12         1.3518   -5.6135   -4.5253 H         1 <0>         0.0461
     47 H13        -0.0016   -6.3046   -6.3975 H         1 <0>         0.0474
     48 H14        -1.3964   -5.6824   -5.4819 H         1 <0>         0.0874
     49 H15        -1.8691   -5.8464   -7.9343 H         1 <0>         0.1004
     50 H16        -1.9737   -4.1718   -7.3378 H         1 <0>         0.0619
     51 H17         1.2782   -3.3067   -8.7597 H         1 <0>         0.1010
     52 H18        -0.0942   -2.6551   -7.8307 H         1 <0>         0.0622
     53 H19         1.7952   -3.1069   -6.3189 H         1 <0>         0.0893
     54 H20         1.8728   -4.7921   -6.8890 H         1 <0>         0.0465
     55 H21         0.8923  -10.2803    0.9408 H         1 <0>         0.3905
     56 H22         3.1568   -3.5579    3.9036 H         1 <0>         0.4315
@<TRIPOS>BOND
     1    1    6 ar
     2    1    2 ar
     3    1   35 1
     4    2    3 ar
     5    2   36 1
     6    3    4 ar
     7    3   37 1
     8    4    5 ar
     9    4   34 1
    10    5    6 ar
    11    5    7 1
    12    6   38 1
    13    7   28 ar
    14    7    8 ar
    15    8    9 ar
    16    8   39 1
    17    9   17 1
    18    9   10 ar
    19   10   11 1
    20   10   27 ar
    21   11   16 ar
    22   11   12 ar
    23   12   13 ar
    24   12   40 1
    25   13   14 ar
    26   13   26 1
    27   14   15 ar
    28   14   41 1
    29   15   16 ar
    30   15   42 1
    31   16   17 1
    32   17   18 1
    33   18   19 1
    34   18   43 1
    35   18   44 1
    36   19   20 1
    37   19   45 1
    38   19   46 1
    39   20   25 1
    40   20   21 1
    41   21   22 1
    42   21   47 1
    43   21   48 1
    44   22   23 1
    45   22   49 1
    46   22   50 1
    47   23   24 1
    48   24   25 1
    49   24   51 1
    50   24   52 1
    51   25   53 1
    52   25   54 1
    53   26   55 1
    54   27   32 1
    55   27   28 ar
    56   28   29 1
    57   29   30 2
    58   29   31 am
    59   31   32 am
    60   31   56 1
    61   32   33 2
@<TRIPOS>MOLECULE
CHEMBL520071
   56    61     0     0     0
SMALL
USER_CHARGES

@<TRIPOS>ATOM
      1 C1         -0.0167    1.3790    0.0096 C.ar      1 <0>        -0.0833
      2 C2          1.1680    2.0931    0.0021 C.ar      1 <0>        -0.1039
      3 C3          2.3785    1.4284   -0.0135 C.ar      1 <0>        -0.0033
      4 C4          2.4047    0.0329   -0.0212 C.ar      1 <0>        -0.0412
      5 C5          1.2056   -0.6814   -0.0131 C.ar      1 <0>        -0.0033
      6 C6          0.0021   -0.0041    0.0020 C.ar      1 <0>        -0.1040
      7 Cl1         1.2269   -2.4173   -0.0233 Cl        1 <0>        -0.0482
      8 C7          3.6990   -0.6866   -0.0385 C.ar      1 <0>         0.0555
      9 C8          4.3172   -1.0365    1.1608 C.ar      1 <0>        -0.0960
     10 C9          5.5303   -1.7113    1.1570 C.ar      1 <0>         0.1768
     11 C10         6.1436   -2.0466   -0.0687 C.ar      1 <0>        -0.0259
     12 C11         7.3954   -2.7439    0.2692 C.ar      1 <0>        -0.0953
     13 C12         8.4152   -3.3067   -0.4977 C.ar      1 <0>        -0.0727
     14 C13         9.4915   -3.9072    0.1280 C.ar      1 <0>         0.0780
     15 C14         9.5569   -3.9500    1.5167 C.ar      1 <0>        -0.0944
     16 C15         8.5535   -3.3970    2.2825 C.ar      1 <0>        -0.1258
     17 C16         7.4627   -2.7879    1.6702 C.ar      1 <0>         0.1427
     18 N1          6.3366   -2.1645    2.1825 N.pl3     1 <0>        -0.4958
     19 C17         6.0430   -2.0082    3.6092 C.3       1 <0>         0.1152
     20 C18         5.2400   -3.2147    4.0998 C.3       1 <0>         0.0359
     21 N2          4.9455   -3.0579    5.5304 N.3       1 <0>        -0.5326
     22 C19         6.1769   -3.1167    6.3313 C.3       1 <0>         0.0105
     23 C20         5.8318   -2.8900    7.8055 C.3       1 <0>         0.0633
     24 O1          4.8695   -3.8635    8.2198 O.3       1 <0>        -0.3835
     25 C21         3.6574   -3.8339    7.4614 C.3       1 <0>         0.0634
     26 C22         3.9805   -4.0702    5.9836 C.3       1 <0>         0.0187
     27 O2         10.4881   -4.4577   -0.6157 O.3       1 <0>        -0.4928
     28 C23         5.5309   -1.6996   -1.2735 C.ar      1 <0>        -0.0799
     29 C24         4.2979   -1.0200   -1.2595 C.ar      1 <0>        -0.1488
     30 C25         3.9316   -0.8164   -2.6717 C.2       1 <0>         0.5802
     31 O3          2.9288   -0.2579   -3.0706 O.2       1 <0>        -0.4514
     32 N3          4.8926   -1.3513   -3.4461 N.am      1 <0>        -0.6799
     33 C26         5.8745   -1.8840   -2.6965 C.2       1 <0>         0.5799
     34 O4          6.8706   -2.4357   -3.1201 O.2       1 <0>        -0.4550
     35 Cl2         3.8641    2.3266   -0.0240 Cl        1 <0>        -0.0478
     36 H1         -0.9605    1.9037    0.0260 H         1 <0>         0.1461
     37 H2          1.1462    3.1729    0.0082 H         1 <0>         0.1448
     38 H3         -0.9265   -0.5555    0.0083 H         1 <0>         0.1446
     39 H4          3.8492   -0.7804    2.0998 H         1 <0>         0.1453
     40 H5          8.3641   -3.2737   -1.5760 H         1 <0>         0.1480
     41 H6         10.4009   -4.4209    1.9987 H         1 <0>         0.1394
     42 H7          8.6140   -3.4364    3.3601 H         1 <0>         0.1299
     43 H8          6.9769   -1.9421    4.1673 H         1 <0>         0.0941
     44 H9          5.4626   -1.0985    3.7632 H         1 <0>         0.1026
     45 H10         4.3060   -3.2807    3.5417 H         1 <0>         0.0853
     46 H11         5.8204   -4.1243    3.9458 H         1 <0>         0.0463
     47 H12         6.6419   -4.0954    6.2127 H         1 <0>         0.0474
     48 H13         6.8667   -2.3423    5.9957 H         1 <0>         0.0873
     49 H14         6.7334   -2.9893    8.4099 H         1 <0>         0.1004
     50 H15         5.4161   -1.8904    7.9324 H         1 <0>         0.0619
     51 H16         2.9864   -4.6160    7.8168 H         1 <0>         0.1009
     52 H17         3.1785   -2.8617    7.5783 H         1 <0>         0.0622
     53 H18         3.0670   -3.9918    5.3943 H         1 <0>         0.0892
     54 H19         4.4103   -5.0642    5.8595 H         1 <0>         0.0464
     55 H20        11.2054   -3.8447   -0.8274 H         1 <0>         0.3906
     56 H21         4.8830   -1.3462   -4.4161 H         1 <0>         0.4321
@<TRIPOS>BOND
     1    1    6 ar
     2    1    2 ar
     3    1   36 1
     4    2    3 ar
     5    2   37 1
     6    3    4 ar
     7    3   35 1
     8    4    5 ar
     9    4    8 1
    10    5    6 ar
    11    5    7 1
    12    6   38 1
    13    8   29 ar
    14    8    9 ar
    15    9   10 ar
    16    9   39 1
    17   10   18 1
    18   10   11 ar
    19   11   12 1
    20   11   28 ar
    21   12   17 ar
    22   12   13 ar
    23   13   14 ar
    24   13   40 1
    25   14   15 ar
    26   14   27 1
    27   15   16 ar
    28   15   41 1
    29   16   17 ar
    30   16   42 1
    31   17   18 1
    32   18   19 1
    33   19   20 1
    34   19   43 1
    35   19   44 1
    36   20   21 1
    37   20   45 1
    38   20   46 1
    39   21   26 1
    40   21   22 1
    41   22   23 1
    42   22   47 1
    43   22   48 1
    44   23   24 1
    45   23   49 1
    46   23   50 1
    47   24   25 1
    48   25   26 1
    49   25   51 1
    50   25   52 1
    51   26   53 1
    52   26   54 1
    53   27   55 1
    54   28   33 1
    55   28   29 ar
    56   29   30 1
    57   30   31 2
    58   30   32 am
    59   32   33 am
    60   32   56 1
    61   33   34 2
@<TRIPOS>MOLECULE
CHEMBL488899
   50    55     0     0     0
SMALL
USER_CHARGES

@<TRIPOS>ATOM
      1 C1         -0.0167    1.3792    0.0096 C.ar      1 <0>        -0.1050
      2 C2          1.1685    2.0927    0.0021 C.ar      1 <0>        -0.1233
      3 C3          2.3774    1.4276   -0.0135 C.ar      1 <0>        -0.0969
      4 C4          2.4028    0.0333   -0.0212 C.ar      1 <0>        -0.0715
      5 C5          1.2047   -0.6805   -0.0131 C.ar      1 <0>        -0.0695
      6 C6          0.0021   -0.0041    0.0020 C.ar      1 <0>        -0.1183
      7 C7          3.6973   -0.6869   -0.0384 C.ar      1 <0>         0.0700
      8 C8          4.6754   -0.3384   -0.9678 C.ar      1 <0>        -0.1144
      9 C9          5.8922   -1.0065   -0.9938 C.ar      1 <0>         0.1744
     10 C10         6.1423   -2.0459   -0.0730 C.ar      1 <0>        -0.0318
     11 C11         7.4991   -2.5393   -0.3607 C.ar      1 <0>        -0.0917
     12 C12         8.2934   -3.5392    0.1999 C.ar      1 <0>        -0.0741
     13 C13         9.5594   -3.7717   -0.3037 C.ar      1 <0>         0.0813
     14 C14        10.0393   -3.0111   -1.3648 C.ar      1 <0>        -0.0946
     15 C15         9.2614   -2.0209   -1.9249 C.ar      1 <0>        -0.1254
     16 C16         7.9844   -1.7730   -1.4314 C.ar      1 <0>         0.1381
     17 N1          7.0072   -0.8611   -1.7955 N.pl3     1 <0>        -0.4986
     18 C17         7.1380    0.1182   -2.8772 C.3       1 <0>         0.1006
     19 C18         7.7289    1.4156   -2.3217 C.3       1 <0>         0.0877
     20 N2          7.8597    2.3950   -3.4034 N.pl3     1 <0>        -0.4615
     21 C19         8.9454    2.5632   -4.2199 C.2       1 <0>        -0.0572
     22 C20         8.6434    3.5643   -5.0684 C.2       1 <0>        -0.0233
     23 N3          7.4070    3.9957   -4.7780 N.2       1 <0>        -0.4897
     24 C21         6.9295    3.2965   -3.7850 C.2       1 <0>         0.1837
     25 O1         10.3376   -4.7456    0.2396 O.3       1 <0>        -0.4927
     26 C22         5.1676   -2.4003    0.8608 C.ar      1 <0>        -0.0773
     27 C23         3.9391   -1.7132    0.8827 C.ar      1 <0>        -0.1621
     28 C24         3.1555   -2.3189    1.9736 C.2       1 <0>         0.5794
     29 O2          2.0310   -1.9966    2.3024 O.2       1 <0>        -0.4506
     30 N4          3.8925   -3.2886    2.5445 N.am      1 <0>        -0.6800
     31 C25         5.0881   -3.4048    1.9386 C.2       1 <0>         0.5786
     32 O3          5.9616   -4.1941    2.2386 O.2       1 <0>        -0.4549
     33 H1         -0.9604    1.9042    0.0260 H         1 <0>         0.1247
     34 H2          1.1476    3.1725    0.0082 H         1 <0>         0.1264
     35 H3          3.3020    1.9857   -0.0200 H         1 <0>         0.1240
     36 H4          1.2181   -1.7604   -0.0194 H         1 <0>         0.1215
     37 H5         -0.9264   -0.5557    0.0079 H         1 <0>         0.1261
     38 H6          4.4855    0.4570   -1.6732 H         1 <0>         0.1445
     39 H7          7.9210   -4.1292    1.0243 H         1 <0>         0.1486
     40 H8         11.0297   -3.1978   -1.7528 H         1 <0>         0.1406
     41 H9          9.6439   -1.4363   -2.7485 H         1 <0>         0.1314
     42 H10         7.7963   -0.2794   -3.6496 H         1 <0>         0.1022
     43 H11         6.1561    0.3202   -3.3051 H         1 <0>         0.1014
     44 H12         7.0707    1.8132   -1.5493 H         1 <0>         0.1021
     45 H13         8.7108    1.2137   -1.8938 H         1 <0>         0.1011
     46 H14         9.8672    2.0012   -4.1893 H         1 <0>         0.1753
     47 H15         9.2844    3.9520   -5.8465 H         1 <0>         0.1717
     48 H16         5.9531    3.4201   -3.3403 H         1 <0>         0.2050
     49 H17        10.2282   -5.6129   -0.1739 H         1 <0>         0.3917
     50 H18         3.5977   -3.8372    3.2881 H         1 <0>         0.4323
@<TRIPOS>BOND
     1    1    6 ar
     2    1    2 ar
     3    1   33 1
     4    2    3 ar
     5    2   34 1
     6    3    4 ar
     7    3   35 1
     8    4    5 ar
     9    4    7 1
    10    5    6 ar
    11    5   36 1
    12    6   37 1
    13    7   27 ar
    14    7    8 ar
    15    8    9 ar
    16    8   38 1
    17    9   17 1
    18    9   10 ar
    19   10   11 1
    20   10   26 ar
    21   11   16 ar
    22   11   12 ar
    23   12   13 ar
    24   12   39 1
    25   13   14 ar
    26   13   25 1
    27   14   15 ar
    28   14   40 1
    29   15   16 ar
    30   15   41 1
    31   16   17 1
    32   17   18 1
    33   18   19 1
    34   18   42 1
    35   18   43 1
    36   19   20 1
    37   19   44 1
    38   19   45 1
    39   20   24 1
    40   20   21 1
    41   21   22 2
    42   21   46 1
    43   22   23 1
    44   22   47 1
    45   23   24 2
    46   24   48 1
    47   25   49 1
    48   26   31 1
    49   26   27 ar
    50   27   28 1
    51   28   29 2
    52   28   30 am
    53   30   31 am
    54   30   50 1
    55   31   32 2
@<TRIPOS>MOLECULE
CHEMBL488899
   51    56     0     0     0
SMALL
USER_CHARGES

@<TRIPOS>ATOM
      1 C1         -0.0167    1.3792    0.0096 C.ar      1 <0>        -0.1015
      2 C2          1.1685    2.0927    0.0021 C.ar      1 <0>        -0.1246
      3 C3          2.3774    1.4276   -0.0135 C.ar      1 <0>        -0.0999
      4 C4          2.4028    0.0333   -0.0212 C.ar      1 <0>        -0.0764
      5 C5          1.2047   -0.6805   -0.0131 C.ar      1 <0>        -0.0678
      6 C6          0.0021   -0.0041    0.0020 C.ar      1 <0>        -0.1145
      7 C7          3.6973   -0.6869   -0.0384 C.ar      1 <0>         0.0737
      8 C8          4.6754   -0.3384   -0.9678 C.ar      1 <0>        -0.1189
      9 C9          5.8922   -1.0065   -0.9938 C.ar      1 <0>         0.1673
     10 C10         6.1423   -2.0459   -0.0730 C.ar      1 <0>        -0.0287
     11 C11         7.4991   -2.5393   -0.3607 C.ar      1 <0>        -0.0855
     12 C12         8.2934   -3.5392    0.1999 C.ar      1 <0>        -0.0736
     13 C13         9.5594   -3.7717   -0.3037 C.ar      1 <0>         0.0917
     14 C14        10.0393   -3.0111   -1.3648 C.ar      1 <0>        -0.0936
     15 C15         9.2614   -2.0209   -1.9249 C.ar      1 <0>        -0.1275
     16 C16         7.9844   -1.7730   -1.4314 C.ar      1 <0>         0.1284
     17 N1          7.0072   -0.8611   -1.7955 N.pl3     1 <0>        -0.5041
     18 C17         7.1380    0.1182   -2.8772 C.3       1 <0>         0.1022
     19 C18         7.7289    1.4156   -2.3217 C.3       1 <0>         0.0696
     20 N2          7.8597    2.3950   -3.4034 N.pl3     1 <0>        -0.4088
     21 C19         8.9452    2.5628   -4.2202 C.2       1 <0>         0.0253
     22 C20         8.6433    3.5641   -5.0686 C.2       1 <0>         0.0089
     23 N3          7.4072    3.9959   -4.7778 N.pl3     1 <0>        -0.4734
     24 C21         6.9297    3.2968   -3.7847 C.cat     1 <0>         0.2900
     25 O1         10.3376   -4.7456    0.2396 O.3       1 <0>        -0.4914
     26 C22         5.1676   -2.4003    0.8608 C.ar      1 <0>        -0.0721
     27 C23         3.9391   -1.7132    0.8827 C.ar      1 <0>        -0.1543
     28 C24         3.1555   -2.3189    1.9736 C.2       1 <0>         0.5765
     29 O2          2.0310   -1.9966    2.3024 O.2       1 <0>        -0.4446
     30 N4          3.8925   -3.2886    2.5445 N.am      1 <0>        -0.6782
     31 C25         5.0881   -3.4048    1.9386 C.2       1 <0>         0.5760
     32 O3          5.9616   -4.1941    2.2386 O.2       1 <0>        -0.4494
     33 H1         -0.9604    1.9042    0.0260 H         1 <0>         0.1271
     34 H2          1.1476    3.1725    0.0082 H         1 <0>         0.1262
     35 H3          3.3020    1.9857   -0.0200 H         1 <0>         0.1207
     36 H4          1.2181   -1.7604   -0.0194 H         1 <0>         0.1230
     37 H5         -0.9264   -0.5557    0.0079 H         1 <0>         0.1291
     38 H6          4.4855    0.4570   -1.6732 H         1 <0>         0.1408
     39 H7          7.9210   -4.1292    1.0243 H         1 <0>         0.1517
     40 H8         11.0297   -3.1978   -1.7528 H         1 <0>         0.1434
     41 H9          9.6439   -1.4363   -2.7485 H         1 <0>         0.1290
     42 H10         7.7963   -0.2794   -3.6496 H         1 <0>         0.1090
     43 H11         6.1561    0.3202   -3.3051 H         1 <0>         0.1057
     44 H12         7.0707    1.8132   -1.5493 H         1 <0>         0.1290
     45 H13         8.7108    1.2137   -1.8938 H         1 <0>         0.1330
     46 H14         9.8668    2.0006   -4.1899 H         1 <0>         0.2247
     47 H15         9.2842    3.9516   -5.8468 H         1 <0>         0.2261
     48 H16         5.9534    3.4207   -3.3397 H         1 <0>         0.2612
     49 H17        10.2282   -5.6129   -0.1739 H         1 <0>         0.3966
     50 H18         3.5977   -3.8372    3.2881 H         1 <0>         0.4356
     51 H19         6.9403    4.7122   -5.2359 H         1 <0>         0.4672
@<TRIPOS>BOND
     1    1    6 ar
     2    1    2 ar
     3    1   33 1
     4    2    3 ar
     5    2   34 1
     6    3    4 ar
     7    3   35 1
     8    4    5 ar
     9    4    7 1
    10    5    6 ar
    11    5   36 1
    12    6   37 1
    13    7   27 ar
    14    7    8 ar
    15    8    9 ar
    16    8   38 1
    17    9   17 1
    18    9   10 ar
    19   10   11 1
    20   10   26 ar
    21   11   16 ar
    22   11   12 ar
    23   12   13 ar
    24   12   39 1
    25   13   14 ar
    26   13   25 1
    27   14   15 ar
    28   14   40 1
    29   15   16 ar
    30   15   41 1
    31   16   17 1
    32   17   18 1
    33   18   19 1
    34   18   42 1
    35   18   43 1
    36   19   20 1
    37   19   44 1
    38   19   45 1
    39   20   24 1
    40   20   21 1
    41   21   22 2
    42   21   46 1
    43   22   23 1
    44   22   47 1
    45   23   24 2
    46   23   51 1
    47   24   48 1
    48   25   49 1
    49   26   31 1
    50   26   27 ar
    51   27   28 1
    52   28   29 2
    53   28   30 am
    54   30   31 am
    55   30   50 1
    56   31   32 2
@<TRIPOS>MOLECULE
CHEMBL256480
   60    65     0     0     0
SMALL
USER_CHARGES

@<TRIPOS>ATOM
      1 C1         -0.0166    1.3753    0.0096 C.ar      1 <0>        -0.1161
      2 C2          1.1702    2.0869    0.0021 C.ar      1 <0>        -0.0958
      3 C3          2.3823    1.4213   -0.0135 C.ar      1 <0>        -0.1089
      4 C4          2.4148    0.0403   -0.0213 C.ar      1 <0>        -0.0005
      5 C5          1.2208   -0.6824   -0.0133 C.ar      1 <0>        -0.0542
      6 C6          0.0021   -0.0041    0.0020 C.ar      1 <0>        -0.0863
      7 C7          1.2477   -2.1632   -0.0220 C.ar      1 <0>         0.0530
      8 C8          0.7442   -2.8624   -1.1180 C.ar      1 <0>        -0.1013
      9 C9          0.7642   -4.2497   -1.1380 C.ar      1 <0>         0.1669
     10 C10         1.2980   -4.9604   -0.0415 C.ar      1 <0>        -0.0174
     11 C11         1.1726   -6.3892   -0.3703 C.ar      1 <0>        -0.1335
     12 C12         1.5169   -7.5611    0.3061 C.ar      1 <0>        -0.0346
     13 C13         1.2670   -8.7871   -0.2757 C.ar      1 <0>         0.0538
     14 C14         0.6720   -8.8554   -1.5365 C.ar      1 <0>         0.1596
     15 C15         0.3287   -7.6993   -2.2126 C.ar      1 <0>        -0.2295
     16 C16         0.5743   -6.4567   -1.6382 C.ar      1 <0>         0.1835
     17 N1          0.3379   -5.1653   -2.0804 N.pl3     1 <0>        -0.6067
     18 H1         -0.0695   -4.9366   -2.9305 H         1 <0>         0.4254
     19 O1          0.4287  -10.0665   -2.1035 O.3       1 <0>        -0.2944
     20 C17        -0.1824  -10.0671   -3.3953 C.3       1 <0>         0.0568
     21 C18        -0.3759  -11.5096   -3.8673 C.3       1 <0>        -0.1166
     22 C19        -1.0301  -11.5102   -5.2503 C.3       1 <0>         0.0592
     23 N2         -1.2159  -12.8951   -5.7035 N.3       1 <0>        -0.5362
     24 C20         0.0788  -13.5515   -5.9361 C.3       1 <0>         0.0124
     25 C21        -0.1595  -15.0066   -6.3482 C.3       1 <0>         0.0624
     26 O2         -0.9981  -15.0376   -7.5063 O.3       1 <0>        -0.3852
     27 C22        -2.2676  -14.4075   -7.3149 C.3       1 <0>         0.0627
     28 C23        -2.0506  -12.9464   -6.9127 C.3       1 <0>         0.0174
     29 O3          1.6016   -9.9312    0.3805 O.3       1 <0>        -0.4790
     30 C24         1.8041   -4.2676    1.0594 C.ar      1 <0>        -0.0872
     31 C25         1.7839   -2.8593    1.0677 C.ar      1 <0>        -0.1463
     32 C26         2.3884   -2.4533    2.3483 C.2       1 <0>         0.5789
     33 O4          2.5449   -1.3095    2.7274 O.2       1 <0>        -0.4475
     34 N3          2.7377   -3.5602    3.0281 N.am      1 <0>        -0.6805
     35 C27         2.4175   -4.6703    2.3387 C.2       1 <0>         0.5797
     36 O5          2.6140   -5.8127    2.7027 O.2       1 <0>        -0.4569
     37 Cl1         3.9369   -0.7942   -0.0415 Cl        1 <0>        -0.0609
     38 H2         -0.9598    1.9012    0.0260 H         1 <0>         0.1334
     39 H3          1.1498    3.1667    0.0081 H         1 <0>         0.1347
     40 H4          3.3052    1.9822   -0.0201 H         1 <0>         0.1369
     41 H5         -0.9252   -0.5577    0.0083 H         1 <0>         0.1348
     42 H6          0.3351   -2.3202   -1.9577 H         1 <0>         0.1469
     43 H7          1.9776   -7.5082    1.2814 H         1 <0>         0.1561
     44 H8         -0.1306   -7.7611   -3.1881 H         1 <0>         0.1385
     45 H9         -1.1509   -9.5701   -3.3393 H         1 <0>         0.0664
     46 H10         0.4579   -9.5369   -4.1003 H         1 <0>         0.0643
     47 H11         0.5926  -12.0065   -3.9233 H         1 <0>         0.0771
     48 H12        -1.0161  -12.0398   -3.1622 H         1 <0>         0.0861
     49 H13        -1.9986  -11.0132   -5.1943 H         1 <0>         0.0803
     50 H14        -0.3899  -10.9800   -5.9554 H         1 <0>         0.0392
     51 H15         0.6132  -13.0311   -6.7309 H         1 <0>         0.0445
     52 H16         0.6702  -13.5246   -5.0208 H         1 <0>         0.0910
     53 H17         0.7947  -15.4811   -6.5769 H         1 <0>         0.0998
     54 H18        -0.6460  -15.5410   -5.5322 H         1 <0>         0.0615
     55 H19        -2.8379  -14.4487   -8.2429 H         1 <0>         0.0997
     56 H20        -2.8154  -14.9244   -6.5270 H         1 <0>         0.0613
     57 H21        -3.0136  -12.4777   -6.7103 H         1 <0>         0.0877
     58 H22        -1.5502  -12.4162   -7.7230 H         1 <0>         0.0443
     59 H23         0.9000  -10.2786    0.9481 H         1 <0>         0.3874
     60 H24         3.1569   -3.5585    3.9029 H         1 <0>         0.4316
@<TRIPOS>BOND
     1    1    6 ar
     2    1    2 ar
     3    1   38 1
     4    2    3 ar
     5    2   39 1
     6    3    4 ar
     7    3   40 1
     8    4    5 ar
     9    4   37 1
    10    5    6 ar
    11    5    7 1
    12    6   41 1
    13    7   31 ar
    14    7    8 ar
    15    8    9 ar
    16    8   42 1
    17    9   17 1
    18    9   10 ar
    19   10   11 1
    20   10   30 ar
    21   11   16 ar
    22   11   12 ar
    23   12   13 ar
    24   12   43 1
    25   13   14 ar
    26   13   29 1
    27   14   15 ar
    28   14   19 1
    29   15   16 ar
    30   15   44 1
    31   16   17 1
    32   17   18 1
    33   19   20 1
    34   20   21 1
    35   20   45 1
    36   20   46 1
    37   21   22 1
    38   21   47 1
    39   21   48 1
    40   22   23 1
    41   22   49 1
    42   22   50 1
    43   23   28 1
    44   23   24 1
    45   24   25 1
    46   24   51 1
    47   24   52 1
    48   25   26 1
    49   25   53 1
    50   25   54 1
    51   26   27 1
    52   27   28 1
    53   27   55 1
    54   27   56 1
    55   28   57 1
    56   28   58 1
    57   29   59 1
    58   30   35 1
    59   30   31 ar
    60   31   32 1
    61   32   33 2
    62   32   34 am
    63   34   35 am
    64   34   60 1
    65   35   36 2
@<TRIPOS>MOLECULE
CHEMBL256480
   61    66     0     0     0
SMALL
USER_CHARGES

@<TRIPOS>ATOM
      1 C1         -0.0166    1.3753    0.0096 C.ar      1 <0>        -0.1152
      2 C2          1.1702    2.0869    0.0021 C.ar      1 <0>        -0.0926
      3 C3          2.3823    1.4213   -0.0135 C.ar      1 <0>        -0.1077
      4 C4          2.4148    0.0403   -0.0213 C.ar      1 <0>        -0.0002
      5 C5          1.2208   -0.6824   -0.0133 C.ar      1 <0>        -0.0604
      6 C6          0.0021   -0.0041    0.0020 C.ar      1 <0>        -0.0857
      7 C7          1.2477   -2.1632   -0.0220 C.ar      1 <0>         0.0595
      8 C8          0.7442   -2.8624   -1.1180 C.ar      1 <0>        -0.0996
      9 C9          0.7642   -4.2497   -1.1380 C.ar      1 <0>         0.1657
     10 C10         1.2980   -4.9604   -0.0415 C.ar      1 <0>        -0.0240
     11 C11         1.1726   -6.3892   -0.3703 C.ar      1 <0>        -0.1222
     12 C12         1.5169   -7.5611    0.3061 C.ar      1 <0>        -0.0314
     13 C13         1.2670   -8.7871   -0.2757 C.ar      1 <0>         0.0563
     14 C14         0.6720   -8.8554   -1.5365 C.ar      1 <0>         0.1475
     15 C15         0.3287   -7.6993   -2.2126 C.ar      1 <0>        -0.2264
     16 C16         0.5743   -6.4567   -1.6382 C.ar      1 <0>         0.1823
     17 N1          0.3379   -5.1653   -2.0804 N.pl3     1 <0>        -0.6066
     18 H1         -0.0695   -4.9366   -2.9305 H         1 <0>         0.4256
     19 O1          0.4287  -10.0665   -2.1035 O.3       1 <0>        -0.2957
     20 C17        -0.1824  -10.0671   -3.3953 C.3       1 <0>         0.0585
     21 C18        -0.3759  -11.5096   -3.8673 C.3       1 <0>        -0.1512
     22 C19        -1.0301  -11.5102   -5.2503 C.3       1 <0>        -0.0053
     23 N2         -1.2159  -12.8951   -5.7035 N.4       1 <0>        -0.3843
     24 C20         0.0962  -13.5282   -5.8951 C.3       1 <0>        -0.0503
     25 C21        -0.1001  -14.9711   -6.3670 C.3       1 <0>         0.0362
     26 O2         -0.8652  -14.9720   -7.5754 O.3       1 <0>        -0.3561
     27 C22        -2.1437  -14.3440   -7.4456 C.3       1 <0>         0.0355
     28 C23        -1.9512  -12.8999   -6.9757 C.3       1 <0>        -0.0432
     29 O3          1.6016   -9.9312    0.3805 O.3       1 <0>        -0.4794
     30 C24         1.8041   -4.2676    1.0594 C.ar      1 <0>        -0.0844
     31 C25         1.7839   -2.8593    1.0677 C.ar      1 <0>        -0.1409
     32 C26         2.3884   -2.4533    2.3483 C.2       1 <0>         0.5766
     33 O4          2.5449   -1.3095    2.7274 O.2       1 <0>        -0.4405
     34 N3          2.7377   -3.5602    3.0281 N.am      1 <0>        -0.6792
     35 C27         2.4175   -4.6703    2.3387 C.2       1 <0>         0.5804
     36 O5          2.6140   -5.8127    2.7027 O.2       1 <0>        -0.4582
     37 Cl1         3.9369   -0.7942   -0.0415 Cl        1 <0>        -0.0611
     38 H2         -0.9598    1.9012    0.0260 H         1 <0>         0.1347
     39 H3          1.1498    3.1667    0.0081 H         1 <0>         0.1366
     40 H4          3.3052    1.9822   -0.0201 H         1 <0>         0.1385
     41 H5         -0.9252   -0.5577    0.0083 H         1 <0>         0.1345
     42 H6          0.3351   -2.3202   -1.9577 H         1 <0>         0.1486
     43 H7          1.9776   -7.5082    1.2814 H         1 <0>         0.1595
     44 H8         -0.1306   -7.7611   -3.1881 H         1 <0>         0.1358
     45 H9         -1.1509   -9.5701   -3.3393 H         1 <0>         0.0746
     46 H10         0.4579   -9.5369   -4.1003 H         1 <0>         0.0747
     47 H11         0.5926  -12.0065   -3.9233 H         1 <0>         0.1010
     48 H12        -1.0161  -12.0398   -3.1622 H         1 <0>         0.1010
     49 H13        -1.9986  -11.0132   -5.1943 H         1 <0>         0.1370
     50 H14        -0.3899  -10.9800   -5.9554 H         1 <0>         0.1350
     51 H15         0.6613  -12.9741   -6.6446 H         1 <0>         0.1406
     52 H16         0.6425  -13.5252   -4.9518 H         1 <0>         0.1452
     53 H17         0.8717  -15.4292   -6.5511 H         1 <0>         0.1432
     54 H18        -0.6301  -15.5359   -5.6001 H         1 <0>         0.0823
     55 H19        -2.6510  -14.3483   -8.4103 H         1 <0>         0.1430
     56 H20        -2.7437  -14.8874   -6.7157 H         1 <0>         0.0820
     57 H21        -2.9249  -12.4306   -6.8347 H         1 <0>         0.1436
     58 H22        -1.3854  -12.3461   -7.7248 H         1 <0>         0.1399
     59 H23         0.9000  -10.2786    0.9481 H         1 <0>         0.3884
     60 H24         3.1569   -3.5585    3.9029 H         1 <0>         0.4337
     61 H25        -1.7394  -13.4086   -5.0104 H         1 <0>         0.4248
@<TRIPOS>BOND
     1    1    6 ar
     2    1    2 ar
     3    1   38 1
     4    2    3 ar
     5    2   39 1
     6    3    4 ar
     7    3   40 1
     8    4    5 ar
     9    4   37 1
    10    5    6 ar
    11    5    7 1
    12    6   41 1
    13    7   31 ar
    14    7    8 ar
    15    8    9 ar
    16    8   42 1
    17    9   17 1
    18    9   10 ar
    19   10   11 1
    20   10   30 ar
    21   11   16 ar
    22   11   12 ar
    23   12   13 ar
    24   12   43 1
    25   13   14 ar
    26   13   29 1
    27   14   15 ar
    28   14   19 1
    29   15   16 ar
    30   15   44 1
    31   16   17 1
    32   17   18 1
    33   19   20 1
    34   20   21 1
    35   20   45 1
    36   20   46 1
    37   21   22 1
    38   21   47 1
    39   21   48 1
    40   22   23 1
    41   22   49 1
    42   22   50 1
    43   23   28 1
    44   23   24 1
    45   23   61 1
    46   24   25 1
    47   24   51 1
    48   24   52 1
    49   25   26 1
    50   25   53 1
    51   25   54 1
    52   26   27 1
    53   27   28 1
    54   27   55 1
    55   27   56 1
    56   28   57 1
    57   28   58 1
    58   29   59 1
    59   30   35 1
    60   30   31 ar
    61   31   32 1
    62   32   33 2
    63   32   34 am
    64   34   35 am
    65   34   60 1
    66   35   36 2
@<TRIPOS>MOLECULE
CHEMBL366922
   54    57     0     0     0
SMALL
USER_CHARGES

@<TRIPOS>ATOM
      1 C1         -0.0519    1.4096    0.7070 C.3       1 <0>         0.0709
      2 N1         -0.0222   -0.0405    0.5008 N.am      1 <0>        -0.5064
      3 C2         -1.1944   -0.7196    0.2829 C.ar      1 <0>         0.4685
      4 C3         -1.1833   -2.1170    0.0825 C.ar      1 <0>        -0.2863
      5 C4          0.0376   -2.8291    0.1047 C.2       1 <0>         0.0409
      6 C5          1.2022   -2.1430    0.3229 C.2       1 <0>        -0.1774
      7 C6          1.1560   -0.6928    0.5217 C.2       1 <0>         0.5599
      8 O1          2.1880   -0.0740    0.7115 O.2       1 <0>        -0.5076
      9 C7          2.4981   -2.8606    0.3525 C.ar      1 <0>         0.0108
     10 C8          2.9861   -3.3760    1.5545 C.ar      1 <0>        -0.0172
     11 C9          4.1940   -4.0447    1.5783 C.ar      1 <0>        -0.0898
     12 C10         4.9230   -4.2057    0.4141 C.ar      1 <0>        -0.1167
     13 C11         4.4459   -3.6964   -0.7851 C.ar      1 <0>         0.1222
     14 C12         3.2319   -3.0285   -0.8212 C.ar      1 <0>        -0.0372
     15 Cl1         2.6301   -2.3968   -2.3220 Cl        1 <0>        -0.0365
     16 O2          5.1672   -3.8569   -1.9263 O.3       1 <0>        -0.4821
     17 Cl2         2.0751   -3.1759    3.0187 Cl        1 <0>        -0.0461
     18 C13        -2.4037   -2.7732   -0.1376 C.ar      1 <0>         0.2673
     19 N2         -3.5127   -2.0577   -0.1483 N.ar      1 <0>        -0.5652
     20 C14        -3.4851   -0.7434    0.0442 C.ar      1 <0>         0.6115
     21 N3         -2.3583   -0.0804    0.2556 N.ar      1 <0>        -0.5994
     22 N4         -4.6754   -0.0427    0.0229 N.pl3     1 <0>        -0.6173
     23 C15        -5.8907   -0.7303   -0.0811 C.ar      1 <0>         0.1001
     24 C16        -6.0354   -1.9788    0.5093 C.ar      1 <0>        -0.0662
     25 C17        -7.2344   -2.6560    0.4067 C.ar      1 <0>        -0.1383
     26 C18        -8.2942   -2.0896   -0.2864 C.ar      1 <0>         0.1330
     27 C19        -8.1504   -0.8427   -0.8769 C.ar      1 <0>        -0.1927
     28 C20        -6.9539   -0.1615   -0.7699 C.ar      1 <0>        -0.0965
     29 O3         -9.4745   -2.7573   -0.3874 O.3       1 <0>        -0.3102
     30 C21       -10.5230   -2.1150   -1.1155 C.3       1 <0>         0.0579
     31 C22       -11.7631   -3.0110   -1.1212 C.3       1 <0>        -0.0923
     32 C23       -12.8857   -2.3233   -1.9007 C.3       1 <0>        -0.1806
     33 C24       -14.1072   -3.2059   -1.9063 C.2       1 <0>         0.4908
     34 O4        -14.0822   -4.2850   -1.3393 O.co2     1 <0>        -0.6955
     35 O5        -15.1204   -2.8409   -2.4777 O.co2     1 <0>        -0.7046
     36 H1          0.9634    1.7759    0.8588 H         1 <0>         0.0993
     37 H2         -0.4851    1.8923   -0.1690 H         1 <0>         0.0797
     38 H3         -0.6561    1.6395    1.5846 H         1 <0>         0.0800
     39 H4          0.0515   -3.8982   -0.0477 H         1 <0>         0.1497
     40 H5          4.5708   -4.4427    2.5089 H         1 <0>         0.1479
     41 H6          5.8671   -4.7296    0.4386 H         1 <0>         0.1501
     42 H7          4.9575   -4.6653   -2.4137 H         1 <0>         0.3960
     43 H8         -2.4349   -3.8412   -0.2952 H         1 <0>         0.1877
     44 H9         -4.6693    0.9255    0.0801 H         1 <0>         0.4246
     45 H10        -5.2101   -2.4203    1.0484 H         1 <0>         0.1386
     46 H11        -7.3471   -3.6270    0.8658 H         1 <0>         0.1353
     47 H12        -8.9757   -0.4027   -1.4170 H         1 <0>         0.1347
     48 H13        -6.8436    0.8113   -1.2259 H         1 <0>         0.1263
     49 H14       -10.7643   -1.1635   -0.6416 H         1 <0>         0.0582
     50 H15       -10.1979   -1.9381   -2.1408 H         1 <0>         0.0583
     51 H16       -11.5217   -3.9625   -1.5951 H         1 <0>         0.0718
     52 H17       -12.0882   -3.1879   -0.0959 H         1 <0>         0.0717
     53 H18       -13.1271   -1.3719   -1.4268 H         1 <0>         0.0590
     54 H19       -12.5606   -2.1464   -2.9259 H         1 <0>         0.0591
@<TRIPOS>BOND
     1    1    2 1
     2    1   36 1
     3    1   37 1
     4    1   38 1
     5    2    7 am
     6    2    3 1
     7    3   21 ar
     8    3    4 ar
     9    4    5 1
    10    4   18 ar
    11    5    6 2
    12    5   39 1
    13    6    7 1
    14    6    9 1
    15    7    8 2
    16    9   14 ar
    17    9   10 ar
    18   10   11 ar
    19   10   17 1
    20   11   12 ar
    21   11   40 1
    22   12   13 ar
    23   12   41 1
    24   13   14 ar
    25   13   16 1
    26   14   15 1
    27   16   42 1
    28   18   19 ar
    29   18   43 1
    30   19   20 ar
    31   20   21 ar
    32   20   22 1
    33   22   23 1
    34   22   44 1
    35   23   28 ar
    36   23   24 ar
    37   24   25 ar
    38   24   45 1
    39   25   26 ar
    40   25   46 1
    41   26   27 ar
    42   26   29 1
    43   27   28 ar
    44   27   47 1
    45   28   48 1
    46   29   30 1
    47   30   31 1
    48   30   49 1
    49   30   50 1
    50   31   32 1
    51   31   51 1
    52   31   52 1
    53   32   33 1
    54   32   53 1
    55   32   54 1
    56   33   34 2
    57   33   35 1
@<TRIPOS>MOLECULE
CHEMBL438566
   65    70     0     0     0
SMALL
USER_CHARGES

@<TRIPOS>ATOM
      1 C1         -0.0178    1.4608    0.0101 C.3       1 <0>         0.0783
      2 N1          0.0021   -0.0041    0.0020 N.pl3     1 <0>        -0.5014
      3 C2          0.0079   -0.7889   -1.1396 C.ar      1 <0>         0.1454
      4 C3         -0.0021   -0.4698   -2.4938 C.ar      1 <0>        -0.1262
      5 C4          0.0075   -1.4711   -3.4407 C.ar      1 <0>        -0.0564
      6 C5          0.0268   -2.8077   -3.0564 C.ar      1 <0>         0.0798
      7 C6          0.0370   -3.1438   -1.7158 C.ar      1 <0>        -0.0705
      8 C7          0.0279   -2.1370   -0.7508 C.ar      1 <0>        -0.1013
      9 C8          0.0342   -2.1487    0.7213 C.ar      1 <0>        -0.0293
     10 C9          0.0236   -0.7987    1.1313 C.ar      1 <0>         0.1728
     11 C10         0.0318   -0.4884    2.4845 C.ar      1 <0>        -0.1051
     12 C11         0.0542   -1.5008    3.4420 C.ar      1 <0>         0.0568
     13 C12         0.0692   -2.8431    3.0439 C.ar      1 <0>        -0.1520
     14 C13         0.0521   -3.1680    1.6740 C.ar      1 <0>        -0.0812
     15 C14         0.0726   -4.6419    1.6077 C.2       1 <0>         0.5794
     16 O1          0.0776   -5.3063    0.5906 O.2       1 <0>        -0.4570
     17 N2          0.0849   -5.1263    2.8626 N.am      1 <0>        -0.6808
     18 C15         0.0932   -4.1279    3.7643 C.2       1 <0>         0.5794
     19 O2          0.1061   -4.2634    4.9718 O.2       1 <0>        -0.4482
     20 C16         0.0628   -1.1564    4.8826 C.ar      1 <0>        -0.0540
     21 C17        -1.0364   -0.5178    5.4565 C.ar      1 <0>        -0.0862
     22 C18        -1.0229   -0.1999    6.7989 C.ar      1 <0>        -0.1158
     23 C19         0.0781   -0.5132    7.5765 C.ar      1 <0>        -0.0959
     24 C20         1.1717   -1.1459    7.0144 C.ar      1 <0>        -0.1090
     25 C21         1.1683   -1.4748    5.6727 C.ar      1 <0>        -0.0001
     26 Cl1         2.5387   -2.2756    4.9695 Cl        1 <0>        -0.0615
     27 O3          0.0352   -3.7856   -4.0014 O.3       1 <0>        -0.4877
     28 C22        -0.0035   -1.1148   -4.9049 C.3       1 <0>        -0.0775
     29 C23         1.4163   -1.2183   -5.4656 C.3       1 <0>        -0.1099
     30 C24         1.4051   -0.8566   -6.9522 C.3       1 <0>        -0.1156
     31 C25         2.8249   -0.9601   -7.5130 C.3       1 <0>         0.0546
     32 N3          2.8142   -0.6128   -8.9403 N.3       1 <0>        -0.5382
     33 C26         2.0641   -1.6088   -9.7192 C.3       1 <0>         0.0142
     34 C27         2.0274   -1.1779  -11.1878 C.3       1 <0>         0.0622
     35 O4          3.3656   -1.0135  -11.6648 O.3       1 <0>        -0.3857
     36 C28         4.1247   -0.0502  -10.9292 C.3       1 <0>         0.0628
     37 C29         4.1827   -0.4696   -9.4579 C.3       1 <0>         0.0167
     38 H1          1.0048    1.8381    0.0023 H         1 <0>         0.0743
     39 H2         -0.5450    1.8219   -0.8730 H         1 <0>         0.0875
     40 H3         -0.5280    1.8123    0.9069 H         1 <0>         0.0863
     41 H4         -0.0178    0.5647   -2.8036 H         1 <0>         0.1318
     42 H5          0.0520   -4.1815   -1.4168 H         1 <0>         0.1477
     43 H6          0.0211    0.5452    2.7974 H         1 <0>         0.1451
     44 H7          0.0987   -6.0698    3.0874 H         1 <0>         0.4313
     45 H8         -1.8964   -0.2722    4.8511 H         1 <0>         0.1345
     46 H9         -1.8735    0.2949    7.2439 H         1 <0>         0.1335
     47 H10         0.0834   -0.2620    8.6269 H         1 <0>         0.1348
     48 H11         2.0281   -1.3874    7.6264 H         1 <0>         0.1369
     49 H12         0.9210   -4.0568   -4.2788 H         1 <0>         0.3861
     50 H13        -0.6570   -1.8027   -5.4413 H         1 <0>         0.0846
     51 H14        -0.3694   -0.0955   -5.0281 H         1 <0>         0.0752
     52 H15         2.0698   -0.5304   -4.9292 H         1 <0>         0.0648
     53 H16         1.7822   -2.2377   -5.3425 H         1 <0>         0.0606
     54 H17         0.7516   -1.5445   -7.4886 H         1 <0>         0.0652
     55 H18         1.0393    0.1627   -7.0754 H         1 <0>         0.0729
     56 H19         3.4785   -0.2722   -6.9765 H         1 <0>         0.0755
     57 H20         3.1908   -1.9795   -7.3898 H         1 <0>         0.0353
     58 H21         2.5537   -2.5792   -9.6368 H         1 <0>         0.0430
     59 H22         1.0465   -1.6800   -9.3352 H         1 <0>         0.0898
     60 H23         1.5217   -1.9416  -11.7787 H         1 <0>         0.0986
     61 H24         1.4907   -0.2334  -11.2767 H         1 <0>         0.0601
     62 H25         5.1358    0.0018  -11.3330 H         1 <0>         0.0986
     63 H26         3.6490    0.9272  -11.0105 H         1 <0>         0.0603
     64 H27         4.7115    0.2907   -8.8832 H         1 <0>         0.0863
     65 H28         4.7061   -1.4218   -9.3713 H         1 <0>         0.0430
@<TRIPOS>BOND
     1    1    2 1
     2    1   38 1
     3    1   39 1
     4    1   40 1
     5    2   10 1
     6    2    3 1
     7    3    8 ar
     8    3    4 ar
     9    4    5 ar
    10    4   41 1
    11    5    6 ar
    12    5   28 1
    13    6    7 ar
    14    6   27 1
    15    7    8 ar
    16    7   42 1
    17    8    9 1
    18    9   14 ar
    19    9   10 ar
    20   10   11 ar
    21   11   12 ar
    22   11   43 1
    23   12   13 ar
    24   12   20 1
    25   13   18 1
    26   13   14 ar
    27   14   15 1
    28   15   16 2
    29   15   17 am
    30   17   18 am
    31   17   44 1
    32   18   19 2
    33   20   25 ar
    34   20   21 ar
    35   21   22 ar
    36   21   45 1
    37   22   23 ar
    38   22   46 1
    39   23   24 ar
    40   23   47 1
    41   24   25 ar
    42   24   48 1
    43   25   26 1
    44   27   49 1
    45   28   29 1
    46   28   50 1
    47   28   51 1
    48   29   30 1
    49   29   52 1
    50   29   53 1
    51   30   31 1
    52   30   54 1
    53   30   55 1
    54   31   32 1
    55   31   56 1
    56   31   57 1
    57   32   37 1
    58   32   33 1
    59   33   34 1
    60   33   58 1
    61   33   59 1
    62   34   35 1
    63   34   60 1
    64   34   61 1
    65   35   36 1
    66   36   37 1
    67   36   62 1
    68   36   63 1
    69   37   64 1
    70   37   65 1
@<TRIPOS>MOLECULE
CHEMBL438566
   66    71     0     0     0
SMALL
USER_CHARGES

@<TRIPOS>ATOM
      1 C1         -0.0178    1.4608    0.0101 C.3       1 <0>         0.0779
      2 N1          0.0021   -0.0041    0.0020 N.pl3     1 <0>        -0.5015
      3 C2          0.0079   -0.7889   -1.1396 C.ar      1 <0>         0.1473
      4 C3         -0.0021   -0.4698   -2.4938 C.ar      1 <0>        -0.1249
      5 C4          0.0075   -1.4711   -3.4407 C.ar      1 <0>        -0.0702
      6 C5          0.0268   -2.8077   -3.0564 C.ar      1 <0>         0.0751
      7 C6          0.0370   -3.1438   -1.7158 C.ar      1 <0>        -0.0669
      8 C7          0.0279   -2.1370   -0.7508 C.ar      1 <0>        -0.0935
      9 C8          0.0342   -2.1487    0.7213 C.ar      1 <0>        -0.0349
     10 C9          0.0236   -0.7987    1.1313 C.ar      1 <0>         0.1716
     11 C10         0.0318   -0.4884    2.4845 C.ar      1 <0>        -0.1031
     12 C11         0.0542   -1.5008    3.4420 C.ar      1 <0>         0.0626
     13 C12         0.0692   -2.8431    3.0439 C.ar      1 <0>        -0.1467
     14 C13         0.0521   -3.1680    1.6740 C.ar      1 <0>        -0.0799
     15 C14         0.0726   -4.6419    1.6077 C.2       1 <0>         0.5808
     16 O1          0.0776   -5.3063    0.5906 O.2       1 <0>        -0.4598
     17 N2          0.0849   -5.1263    2.8626 N.am      1 <0>        -0.6797
     18 C15         0.0932   -4.1279    3.7643 C.2       1 <0>         0.5771
     19 O2          0.1061   -4.2634    4.9718 O.2       1 <0>        -0.4413
     20 C16         0.0628   -1.1564    4.8826 C.ar      1 <0>        -0.0600
     21 C17        -1.0364   -0.5178    5.4565 C.ar      1 <0>        -0.0855
     22 C18        -1.0229   -0.1999    6.7989 C.ar      1 <0>        -0.1147
     23 C19         0.0781   -0.5132    7.5765 C.ar      1 <0>        -0.0927
     24 C20         1.1717   -1.1459    7.0144 C.ar      1 <0>        -0.1080
     25 C21         1.1683   -1.4748    5.6727 C.ar      1 <0>         0.0003
     26 Cl1         2.5387   -2.2756    4.9695 Cl        1 <0>        -0.0626
     27 O3          0.0352   -3.7856   -4.0014 O.3       1 <0>        -0.4869
     28 C22        -0.0035   -1.1148   -4.9049 C.3       1 <0>        -0.0747
     29 C23         1.4163   -1.2183   -5.4656 C.3       1 <0>        -0.1105
     30 C24         1.4051   -0.8566   -6.9522 C.3       1 <0>        -0.1491
     31 C25         2.8249   -0.9601   -7.5130 C.3       1 <0>        -0.0104
     32 N3          2.8142   -0.6128   -8.9403 N.4       1 <0>        -0.3858
     33 C26         2.0309   -1.6109   -9.6815 C.3       1 <0>        -0.0482
     34 C27         2.0210   -1.2467  -11.1682 C.3       1 <0>         0.0357
     35 O4          3.3676   -1.1758  -11.6453 O.3       1 <0>        -0.3566
     36 C28         4.1781   -0.2333  -10.9379 C.3       1 <0>         0.0355
     37 C29         4.1920   -0.5956   -9.4507 C.3       1 <0>        -0.0437
     38 H1          1.0048    1.8381    0.0023 H         1 <0>         0.0747
     39 H2         -0.5450    1.8219   -0.8730 H         1 <0>         0.0864
     40 H3         -0.5280    1.8123    0.9069 H         1 <0>         0.0887
     41 H4         -0.0178    0.5647   -2.8036 H         1 <0>         0.1308
     42 H5          0.0520   -4.1815   -1.4168 H         1 <0>         0.1498
     43 H6          0.0211    0.5452    2.7974 H         1 <0>         0.1470
     44 H7          0.0987   -6.0698    3.0874 H         1 <0>         0.4331
     45 H8         -1.8964   -0.2722    4.8511 H         1 <0>         0.1345
     46 H9         -1.8735    0.2949    7.2439 H         1 <0>         0.1350
     47 H10         0.0834   -0.2620    8.6269 H         1 <0>         0.1366
     48 H11         2.0281   -1.3874    7.6264 H         1 <0>         0.1383
     49 H12         0.9210   -4.0568   -4.2788 H         1 <0>         0.3819
     50 H13        -0.6570   -1.8027   -5.4413 H         1 <0>         0.0874
     51 H14        -0.3694   -0.0955   -5.0281 H         1 <0>         0.0773
     52 H15         2.0698   -0.5304   -4.9292 H         1 <0>         0.0763
     53 H16         1.7822   -2.2377   -5.3425 H         1 <0>         0.0740
     54 H17         0.7516   -1.5445   -7.4886 H         1 <0>         0.0899
     55 H18         1.0393    0.1627   -7.0754 H         1 <0>         0.0885
     56 H19         3.4785   -0.2722   -6.9765 H         1 <0>         0.1326
     57 H20         3.1908   -1.9795   -7.3898 H         1 <0>         0.1313
     58 H21         2.4800   -2.5954   -9.5513 H         1 <0>         0.1395
     59 H22         1.0085   -1.6244   -9.3037 H         1 <0>         0.1441
     60 H23         1.4769   -2.0088  -11.7261 H         1 <0>         0.1421
     61 H24         1.5358   -0.2800  -11.3030 H         1 <0>         0.0810
     62 H25         5.1951   -0.2619  -11.3290 H         1 <0>         0.1420
     63 H26         3.7667    0.7681  -11.0647 H         1 <0>         0.0810
     64 H27         4.7739    0.1446   -8.9015 H         1 <0>         0.1423
     65 H28         4.6403   -1.5805   -9.3206 H         1 <0>         0.1390
     66 H29         2.3990    0.2987   -9.0616 H         1 <0>         0.4226
@<TRIPOS>BOND
     1    1    2 1
     2    1   38 1
     3    1   39 1
     4    1   40 1
     5    2   10 1
     6    2    3 1
     7    3    8 ar
     8    3    4 ar
     9    4    5 ar
    10    4   41 1
    11    5    6 ar
    12    5   28 1
    13    6    7 ar
    14    6   27 1
    15    7    8 ar
    16    7   42 1
    17    8    9 1
    18    9   14 ar
    19    9   10 ar
    20   10   11 ar
    21   11   12 ar
    22   11   43 1
    23   12   13 ar
    24   12   20 1
    25   13   18 1
    26   13   14 ar
    27   14   15 1
    28   15   16 2
    29   15   17 am
    30   17   18 am
    31   17   44 1
    32   18   19 2
    33   20   25 ar
    34   20   21 ar
    35   21   22 ar
    36   21   45 1
    37   22   23 ar
    38   22   46 1
    39   23   24 ar
    40   23   47 1
    41   24   25 ar
    42   24   48 1
    43   25   26 1
    44   27   49 1
    45   28   29 1
    46   28   50 1
    47   28   51 1
    48   29   30 1
    49   29   52 1
    50   29   53 1
    51   30   31 1
    52   30   54 1
    53   30   55 1
    54   31   32 1
    55   31   56 1
    56   31   57 1
    57   32   37 1
    58   32   33 1
    59   32   66 1
    60   33   34 1
    61   33   58 1
    62   33   59 1
    63   34   35 1
    64   34   60 1
    65   34   61 1
    66   35   36 1
    67   36   37 1
    68   36   62 1
    69   36   63 1
    70   37   64 1
    71   37   65 1
@<TRIPOS>MOLECULE
CHEMBL521051
   56    61     0     0     0
SMALL
USER_CHARGES

@<TRIPOS>ATOM
      1 C1         -0.0167    1.3792    0.0096 C.ar      1 <0>        -0.1062
      2 C2          1.1685    2.0927    0.0021 C.ar      1 <0>        -0.1238
      3 C3          2.3774    1.4276   -0.0135 C.ar      1 <0>        -0.0964
      4 C4          2.4028    0.0333   -0.0212 C.ar      1 <0>        -0.0692
      5 C5          1.2047   -0.6805   -0.0131 C.ar      1 <0>        -0.0698
      6 C6          0.0021   -0.0041    0.0020 C.ar      1 <0>        -0.1189
      7 C7          3.6973   -0.6869   -0.0384 C.ar      1 <0>         0.0674
      8 C8          4.6754   -0.3384   -0.9678 C.ar      1 <0>        -0.1122
      9 C9          5.8922   -1.0065   -0.9938 C.ar      1 <0>         0.1773
     10 C10         6.1423   -2.0459   -0.0730 C.ar      1 <0>        -0.0341
     11 C11         7.4991   -2.5393   -0.3607 C.ar      1 <0>        -0.0943
     12 C12         8.2934   -3.5392    0.1999 C.ar      1 <0>        -0.0739
     13 C13         9.5594   -3.7717   -0.3037 C.ar      1 <0>         0.0782
     14 C14        10.0393   -3.0111   -1.3648 C.ar      1 <0>        -0.0955
     15 C15         9.2614   -2.0209   -1.9249 C.ar      1 <0>        -0.1257
     16 C16         7.9844   -1.7730   -1.4314 C.ar      1 <0>         0.1409
     17 N1          7.0072   -0.8611   -1.7955 N.pl3     1 <0>        -0.4971
     18 C17         7.1380    0.1182   -2.8772 C.3       1 <0>         0.1155
     19 C18         7.7289    1.4156   -2.3217 C.3       1 <0>         0.0362
     20 N2          7.8601    2.3976   -3.4064 N.3       1 <0>        -0.5329
     21 C19         8.8577    1.9615   -4.3942 C.3       1 <0>         0.0105
     22 C20         8.9191    2.9816   -5.5341 C.3       1 <0>         0.0632
     23 O1          9.2183    4.2726   -4.9962 O.3       1 <0>        -0.3836
     24 C21         8.2666    4.7288   -4.0311 C.3       1 <0>         0.0633
     25 C22         8.1985    3.7264   -2.8760 C.3       1 <0>         0.0186
     26 O2         10.3376   -4.7456    0.2396 O.3       1 <0>        -0.4930
     27 C23         5.1676   -2.4003    0.8608 C.ar      1 <0>        -0.0785
     28 C24         3.9391   -1.7132    0.8827 C.ar      1 <0>        -0.1645
     29 C25         3.1555   -2.3189    1.9736 C.2       1 <0>         0.5798
     30 O3          2.0310   -1.9966    2.3024 O.2       1 <0>        -0.4524
     31 N3          3.8925   -3.2886    2.5445 N.am      1 <0>        -0.6806
     32 C26         5.0881   -3.4048    1.9386 C.2       1 <0>         0.5787
     33 O4          5.9616   -4.1941    2.2386 O.2       1 <0>        -0.4561
     34 H1         -0.9604    1.9042    0.0260 H         1 <0>         0.1240
     35 H2          1.1476    3.1725    0.0082 H         1 <0>         0.1256
     36 H3          3.3020    1.9857   -0.0200 H         1 <0>         0.1241
     37 H4          1.2181   -1.7604   -0.0194 H         1 <0>         0.1214
     38 H5         -0.9264   -0.5557    0.0079 H         1 <0>         0.1256
     39 H6          4.4855    0.4570   -1.6732 H         1 <0>         0.1459
     40 H7          7.9210   -4.1292    1.0243 H         1 <0>         0.1477
     41 H8         11.0297   -3.1978   -1.7528 H         1 <0>         0.1393
     42 H9          9.6439   -1.4363   -2.7485 H         1 <0>         0.1296
     43 H10         7.7963   -0.2794   -3.6496 H         1 <0>         0.0935
     44 H11         6.1561    0.3202   -3.3051 H         1 <0>         0.1028
     45 H12         7.0707    1.8132   -1.5493 H         1 <0>         0.0850
     46 H13         8.7108    1.2137   -1.8938 H         1 <0>         0.0460
     47 H14         9.8351    1.8896   -3.9170 H         1 <0>         0.0474
     48 H15         8.5738    0.9874   -4.7924 H         1 <0>         0.0874
     49 H16         9.6976    2.6922   -6.2400 H         1 <0>         0.1005
     50 H17         7.9571    3.0144   -6.0454 H         1 <0>         0.0620
     51 H18         8.5730    5.7030   -3.6500 H         1 <0>         0.1010
     52 H19         7.2855    4.8124   -4.4987 H         1 <0>         0.0622
     53 H20         7.4335    4.0405   -2.1660 H         1 <0>         0.0892
     54 H21         9.1654    3.6826   -2.3746 H         1 <0>         0.0464
     55 H22        10.2282   -5.6129   -0.1739 H         1 <0>         0.3906
     56 H23         3.5977   -3.8372    3.2881 H         1 <0>         0.4316
@<TRIPOS>BOND
     1    1    6 ar
     2    1    2 ar
     3    1   34 1
     4    2    3 ar
     5    2   35 1
     6    3    4 ar
     7    3   36 1
     8    4    5 ar
     9    4    7 1
    10    5    6 ar
    11    5   37 1
    12    6   38 1
    13    7   28 ar
    14    7    8 ar
    15    8    9 ar
    16    8   39 1
    17    9   17 1
    18    9   10 ar
    19   10   11 1
    20   10   27 ar
    21   11   16 ar
    22   11   12 ar
    23   12   13 ar
    24   12   40 1
    25   13   14 ar
    26   13   26 1
    27   14   15 ar
    28   14   41 1
    29   15   16 ar
    30   15   42 1
    31   16   17 1
    32   17   18 1
    33   18   19 1
    34   18   43 1
    35   18   44 1
    36   19   20 1
    37   19   45 1
    38   19   46 1
    39   20   25 1
    40   20   21 1
    41   21   22 1
    42   21   47 1
    43   21   48 1
    44   22   23 1
    45   22   49 1
    46   22   50 1
    47   23   24 1
    48   24   25 1
    49   24   51 1
    50   24   52 1
    51   25   53 1
    52   25   54 1
    53   26   55 1
    54   27   32 1
    55   27   28 ar
    56   28   29 1
    57   29   30 2
    58   29   31 am
    59   31   32 am
    60   31   56 1
    61   32   33 2
@<TRIPOS>MOLECULE
CHEMBL272946
   62    67     0     0     0
SMALL
USER_CHARGES

@<TRIPOS>ATOM
      1 C1         -0.0166    1.3753    0.0096 C.ar      1 <0>        -0.1148
      2 C2          1.1702    2.0869    0.0021 C.ar      1 <0>        -0.0927
      3 C3          2.3823    1.4213   -0.0135 C.ar      1 <0>        -0.1079
      4 C4          2.4147    0.0403   -0.0213 C.ar      1 <0>         0.0000
      5 C5          1.2208   -0.6823   -0.0133 C.ar      1 <0>        -0.0604
      6 C6          0.0021   -0.0041    0.0020 C.ar      1 <0>        -0.0854
      7 C7          1.2476   -2.1633   -0.0220 C.ar      1 <0>         0.0623
      8 C8          0.7443   -2.8623   -1.1176 C.ar      1 <0>        -0.1031
      9 C9          0.7641   -4.2503   -1.1370 C.ar      1 <0>         0.1720
     10 C10         1.2978   -4.9603   -0.0406 C.ar      1 <0>        -0.0345
     11 C11         1.1711   -6.3898   -0.3691 C.ar      1 <0>        -0.0932
     12 C12         1.5141   -7.5614    0.3052 C.ar      1 <0>        -0.0685
     13 C13         1.2616   -8.7878   -0.2800 C.ar      1 <0>         0.0781
     14 C14         0.6683   -8.8531   -1.5363 C.ar      1 <0>        -0.0708
     15 C15         0.3265   -7.7006   -2.2102 C.ar      1 <0>        -0.1256
     16 C16         0.5722   -6.4571   -1.6364 C.ar      1 <0>         0.1460
     17 N1          0.3368   -5.1656   -2.0786 N.pl3     1 <0>        -0.6074
     18 H1         -0.0708   -4.9367   -2.9286 H         1 <0>         0.4263
     19 C17         0.3975  -10.1952   -2.1661 C.3       1 <0>        -0.0699
     20 C18         1.6870  -10.7371   -2.7860 C.3       1 <0>        -0.1119
     21 C19         1.4121  -12.0997   -3.4254 C.3       1 <0>        -0.1463
     22 C20         2.7016  -12.6416   -4.0454 C.3       1 <0>        -0.0063
     23 N2          2.4377  -13.9498   -4.6592 N.4       1 <0>        -0.3949
     24 C21         1.5659  -13.7898   -5.8511 C.3       1 <0>        -0.0068
     25 C22         1.8434  -15.0763   -6.6686 C.3       1 <0>        -0.1462
     26 C23         3.3574  -15.3029   -6.4532 C.3       1 <0>        -0.1457
     27 C24         3.6976  -14.5427   -5.1579 C.3       1 <0>        -0.0089
     28 O1          1.5943   -9.9330    0.3737 O.3       1 <0>        -0.4918
     29 C25         1.8044   -4.2673    1.0595 C.ar      1 <0>        -0.0805
     30 C26         1.7840   -2.8596    1.0679 C.ar      1 <0>        -0.1453
     31 C27         2.3884   -2.4533    2.3485 C.2       1 <0>         0.5768
     32 O2          2.5449   -1.3094    2.7274 O.2       1 <0>        -0.4409
     33 N3          2.7379   -3.5599    3.0287 N.am      1 <0>        -0.6796
     34 C28         2.4184   -4.6701    2.3393 C.2       1 <0>         0.5805
     35 O3          2.6139   -5.8124    2.7038 O.2       1 <0>        -0.4594
     36 Cl1         3.9368   -0.7943   -0.0415 Cl        1 <0>        -0.0622
     37 H2         -0.9598    1.9012    0.0260 H         1 <0>         0.1350
     38 H3          1.1498    3.1667    0.0081 H         1 <0>         0.1366
     39 H4          3.3052    1.9822   -0.0201 H         1 <0>         0.1383
     40 H5         -0.9252   -0.5577    0.0083 H         1 <0>         0.1349
     41 H6          0.3356   -2.3202   -1.9575 H         1 <0>         0.1489
     42 H7          1.9754   -7.5105    1.2804 H         1 <0>         0.1496
     43 H8         -0.1334   -7.7627   -3.1854 H         1 <0>         0.1323
     44 H9          0.0412  -10.8887   -1.4044 H         1 <0>         0.0802
     45 H10        -0.3607  -10.0863   -2.9416 H         1 <0>         0.0756
     46 H11         2.0434  -10.0436   -3.5477 H         1 <0>         0.0730
     47 H12         2.4452  -10.8460   -2.0105 H         1 <0>         0.0840
     48 H13         1.0558  -12.7932   -2.6637 H         1 <0>         0.0874
     49 H14         0.6539  -11.9908   -4.2009 H         1 <0>         0.0849
     50 H15         3.0580  -11.9481   -4.8070 H         1 <0>         0.1282
     51 H16         3.4598  -12.7505   -3.2698 H         1 <0>         0.1305
     52 H17         0.5175  -13.7396   -5.5569 H         1 <0>         0.1345
     53 H18         1.8499  -12.9041   -6.4193 H         1 <0>         0.1329
     54 H19         1.2681  -15.9146   -6.2757 H         1 <0>         0.0978
     55 H20         1.6236  -14.9174   -7.7243 H         1 <0>         0.1159
     56 H21         3.5677  -16.3658   -6.3343 H         1 <0>         0.1048
     57 H22         3.9238  -14.8958   -7.2907 H         1 <0>         0.1032
     58 H23         4.4207  -13.7549   -5.3688 H         1 <0>         0.1301
     59 H24         4.1017  -15.2330   -4.4175 H         1 <0>         0.1319
     60 H25         0.8923  -10.2803    0.9408 H         1 <0>         0.3889
     61 H26         3.1568   -3.5579    3.9036 H         1 <0>         0.4332
     62 H27         2.0035  -14.5675   -3.9898 H         1 <0>         0.4265
@<TRIPOS>BOND
     1    1    6 ar
     2    1    2 ar
     3    1   37 1
     4    2    3 ar
     5    2   38 1
     6    3    4 ar
     7    3   39 1
     8    4    5 ar
     9    4   36 1
    10    5    6 ar
    11    5    7 1
    12    6   40 1
    13    7   30 ar
    14    7    8 ar
    15    8    9 ar
    16    8   41 1
    17    9   17 1
    18    9   10 ar
    19   10   11 1
    20   10   29 ar
    21   11   16 ar
    22   11   12 ar
    23   12   13 ar
    24   12   42 1
    25   13   14 ar
    26   13   28 1
    27   14   15 ar
    28   14   19 1
    29   15   16 ar
    30   15   43 1
    31   16   17 1
    32   17   18 1
    33   19   20 1
    34   19   44 1
    35   19   45 1
    36   20   21 1
    37   20   46 1
    38   20   47 1
    39   21   22 1
    40   21   48 1
    41   21   49 1
    42   22   23 1
    43   22   50 1
    44   22   51 1
    45   23   27 1
    46   23   24 1
    47   23   62 1
    48   24   25 1
    49   24   52 1
    50   24   53 1
    51   25   26 1
    52   25   54 1
    53   25   55 1
    54   26   27 1
    55   26   56 1
    56   26   57 1
    57   27   58 1
    58   27   59 1
    59   28   60 1
    60   29   34 1
    61   29   30 ar
    62   30   31 1
    63   31   32 2
    64   31   33 am
    65   33   34 am
    66   33   61 1
    67   34   35 2
@<TRIPOS>MOLECULE
CHEMBL403679
   62    67     0     0     0
SMALL
USER_CHARGES

@<TRIPOS>ATOM
      1 C1         -0.0166    1.3753    0.0096 C.ar      1 <0>        -0.1160
      2 C2          1.1702    2.0869    0.0021 C.ar      1 <0>        -0.0957
      3 C3          2.3823    1.4213   -0.0135 C.ar      1 <0>        -0.1088
      4 C4          2.4147    0.0403   -0.0213 C.ar      1 <0>        -0.0003
      5 C5          1.2208   -0.6823   -0.0133 C.ar      1 <0>        -0.0547
      6 C6          0.0021   -0.0041    0.0020 C.ar      1 <0>        -0.0861
      7 C7          1.2476   -2.1633   -0.0220 C.ar      1 <0>         0.0567
      8 C8          0.7443   -2.8623   -1.1176 C.ar      1 <0>        -0.1050
      9 C9          0.7641   -4.2503   -1.1370 C.ar      1 <0>         0.1731
     10 C10         1.2978   -4.9603   -0.0406 C.ar      1 <0>        -0.0290
     11 C11         1.1711   -6.3898   -0.3691 C.ar      1 <0>        -0.1011
     12 C12         1.5141   -7.5614    0.3052 C.ar      1 <0>        -0.0716
     13 C13         1.2616   -8.7878   -0.2800 C.ar      1 <0>         0.0816
     14 C14         0.6683   -8.8531   -1.5363 C.ar      1 <0>        -0.0574
     15 C15         0.3265   -7.7006   -2.2102 C.ar      1 <0>        -0.1268
     16 C16         0.5722   -6.4571   -1.6364 C.ar      1 <0>         0.1445
     17 N1          0.3368   -5.1656   -2.0786 N.pl3     1 <0>        -0.6072
     18 H1         -0.0708   -4.9367   -2.9286 H         1 <0>         0.4256
     19 C17         0.3975  -10.1952   -2.1661 C.3       1 <0>        -0.0726
     20 C18         1.6870  -10.7371   -2.7860 C.3       1 <0>        -0.1114
     21 C19         1.4121  -12.0997   -3.4254 C.3       1 <0>        -0.1141
     22 C20         2.7016  -12.6416   -4.0454 C.3       1 <0>         0.0544
     23 N2          2.4377  -13.9498   -4.6592 N.3       1 <0>        -0.5382
     24 C21         2.1000  -14.9523   -3.6383 C.3       1 <0>         0.0143
     25 C22         1.7751  -16.2819   -4.3243 C.3       1 <0>         0.0624
     26 O1          2.8877  -16.6820   -5.1288 O.3       1 <0>        -0.3858
     27 C23         3.2435  -15.7290   -6.1340 C.3       1 <0>         0.0631
     28 C24         3.5834  -14.3938   -5.4664 C.3       1 <0>         0.0164
     29 O2          1.5943   -9.9330    0.3737 O.3       1 <0>        -0.4879
     30 C25         1.8044   -4.2673    1.0595 C.ar      1 <0>        -0.0818
     31 C26         1.7840   -2.8596    1.0679 C.ar      1 <0>        -0.1503
     32 C27         2.3884   -2.4533    2.3485 C.2       1 <0>         0.5790
     33 O3          2.5449   -1.3094    2.7274 O.2       1 <0>        -0.4476
     34 N3          2.7379   -3.5599    3.0287 N.am      1 <0>        -0.6806
     35 C28         2.4184   -4.6701    2.3393 C.2       1 <0>         0.5792
     36 O4          2.6139   -5.8124    2.7038 O.2       1 <0>        -0.4567
     37 Cl1         3.9368   -0.7943   -0.0415 Cl        1 <0>        -0.0611
     38 H2         -0.9598    1.9012    0.0260 H         1 <0>         0.1336
     39 H3          1.1498    3.1667    0.0081 H         1 <0>         0.1348
     40 H4          3.3052    1.9822   -0.0201 H         1 <0>         0.1370
     41 H5         -0.9252   -0.5577    0.0083 H         1 <0>         0.1349
     42 H6          0.3356   -2.3202   -1.9575 H         1 <0>         0.1472
     43 H7          1.9754   -7.5105    1.2804 H         1 <0>         0.1476
     44 H8         -0.1334   -7.7627   -3.1854 H         1 <0>         0.1335
     45 H9          0.0412  -10.8887   -1.4044 H         1 <0>         0.0773
     46 H10        -0.3607  -10.0863   -2.9416 H         1 <0>         0.0741
     47 H11         2.0434  -10.0436   -3.5477 H         1 <0>         0.0626
     48 H12         2.4452  -10.8460   -2.0105 H         1 <0>         0.0712
     49 H13         1.0558  -12.7932   -2.6637 H         1 <0>         0.0636
     50 H14         0.6539  -11.9908   -4.2009 H         1 <0>         0.0709
     51 H15         3.0580  -11.9481   -4.8070 H         1 <0>         0.0754
     52 H16         3.4598  -12.7505   -3.2698 H         1 <0>         0.0362
     53 H17         2.9475  -15.0871   -2.9662 H         1 <0>         0.0431
     54 H18         1.2336  -14.6150   -3.0694 H         1 <0>         0.0893
     55 H19         1.5798  -17.0430   -3.5688 H         1 <0>         0.0983
     56 H20         0.8947  -16.1603   -4.9553 H         1 <0>         0.0599
     57 H21         4.1103  -16.0902   -6.6875 H         1 <0>         0.0985
     58 H22         2.4058  -15.5913   -6.8177 H         1 <0>         0.0601
     59 H23         3.7997  -13.6487   -6.2320 H         1 <0>         0.0863
     60 H24         4.4546  -14.5197   -4.8236 H         1 <0>         0.0432
     61 H25         0.8923  -10.2803    0.9408 H         1 <0>         0.3875
     62 H26         3.1568   -3.5579    3.9036 H         1 <0>         0.4315
@<TRIPOS>BOND
     1    1    6 ar
     2    1    2 ar
     3    1   38 1
     4    2    3 ar
     5    2   39 1
     6    3    4 ar
     7    3   40 1
     8    4    5 ar
     9    4   37 1
    10    5    6 ar
    11    5    7 1
    12    6   41 1
    13    7   31 ar
    14    7    8 ar
    15    8    9 ar
    16    8   42 1
    17    9   17 1
    18    9   10 ar
    19   10   11 1
    20   10   30 ar
    21   11   16 ar
    22   11   12 ar
    23   12   13 ar
    24   12   43 1
    25   13   14 ar
    26   13   29 1
    27   14   15 ar
    28   14   19 1
    29   15   16 ar
    30   15   44 1
    31   16   17 1
    32   17   18 1
    33   19   20 1
    34   19   45 1
    35   19   46 1
    36   20   21 1
    37   20   47 1
    38   20   48 1
    39   21   22 1
    40   21   49 1
    41   21   50 1
    42   22   23 1
    43   22   51 1
    44   22   52 1
    45   23   28 1
    46   23   24 1
    47   24   25 1
    48   24   53 1
    49   24   54 1
    50   25   26 1
    51   25   55 1
    52   25   56 1
    53   26   27 1
    54   27   28 1
    55   27   57 1
    56   27   58 1
    57   28   59 1
    58   28   60 1
    59   29   61 1
    60   30   35 1
    61   30   31 ar
    62   31   32 1
    63   32   33 2
    64   32   34 am
    65   34   35 am
    66   34   62 1
    67   35   36 2
@<TRIPOS>MOLECULE
CHEMBL403679
   63    68     0     0     0
SMALL
USER_CHARGES

@<TRIPOS>ATOM
      1 C1         -0.0166    1.3753    0.0096 C.ar      1 <0>        -0.1148
      2 C2          1.1702    2.0869    0.0021 C.ar      1 <0>        -0.0926
      3 C3          2.3823    1.4213   -0.0135 C.ar      1 <0>        -0.1079
      4 C4          2.4147    0.0403   -0.0213 C.ar      1 <0>         0.0000
      5 C5          1.2208   -0.6823   -0.0133 C.ar      1 <0>        -0.0606
      6 C6          0.0021   -0.0041    0.0020 C.ar      1 <0>        -0.0854
      7 C7          1.2476   -2.1633   -0.0220 C.ar      1 <0>         0.0625
      8 C8          0.7443   -2.8623   -1.1176 C.ar      1 <0>        -0.1030
      9 C9          0.7641   -4.2503   -1.1370 C.ar      1 <0>         0.1720
     10 C10         1.2978   -4.9603   -0.0406 C.ar      1 <0>        -0.0347
     11 C11         1.1711   -6.3898   -0.3691 C.ar      1 <0>        -0.0929
     12 C12         1.5141   -7.5614    0.3052 C.ar      1 <0>        -0.0684
     13 C13         1.2616   -8.7878   -0.2800 C.ar      1 <0>         0.0779
     14 C14         0.6683   -8.8531   -1.5363 C.ar      1 <0>        -0.0714
     15 C15         0.3265   -7.7006   -2.2102 C.ar      1 <0>        -0.1254
     16 C16         0.5722   -6.4571   -1.6364 C.ar      1 <0>         0.1462
     17 N1          0.3368   -5.1656   -2.0786 N.pl3     1 <0>        -0.6074
     18 H1         -0.0708   -4.9367   -2.9286 H         1 <0>         0.4264
     19 C17         0.3975  -10.1952   -2.1661 C.3       1 <0>        -0.0698
     20 C18         1.6870  -10.7371   -2.7860 C.3       1 <0>        -0.1117
     21 C19         1.4121  -12.0997   -3.4254 C.3       1 <0>        -0.1478
     22 C20         2.7016  -12.6416   -4.0454 C.3       1 <0>        -0.0104
     23 N2          2.4377  -13.9498   -4.6592 N.4       1 <0>        -0.3856
     24 C21         2.0736  -14.9168   -3.6145 C.3       1 <0>        -0.0480
     25 C22         1.7988  -16.2789   -4.2566 C.3       1 <0>         0.0360
     26 O1          2.9573  -16.7005   -4.9819 O.3       1 <0>        -0.3567
     27 C23         3.3661  -15.7787   -5.9963 C.3       1 <0>         0.0357
     28 C24         3.6437  -14.4157   -5.3575 C.3       1 <0>        -0.0438
     29 O2          1.5943   -9.9330    0.3737 O.3       1 <0>        -0.4919
     30 C25         1.8044   -4.2673    1.0595 C.ar      1 <0>        -0.0805
     31 C26         1.7840   -2.8596    1.0679 C.ar      1 <0>        -0.1452
     32 C27         2.3884   -2.4533    2.3485 C.2       1 <0>         0.5768
     33 O3          2.5449   -1.3094    2.7274 O.2       1 <0>        -0.4407
     34 N3          2.7379   -3.5599    3.0287 N.am      1 <0>        -0.6796
     35 C28         2.4184   -4.6701    2.3393 C.2       1 <0>         0.5806
     36 O4          2.6139   -5.8124    2.7038 O.2       1 <0>        -0.4595
     37 Cl1         3.9368   -0.7943   -0.0415 Cl        1 <0>        -0.0622
     38 H2         -0.9598    1.9012    0.0260 H         1 <0>         0.1350
     39 H3          1.1498    3.1667    0.0081 H         1 <0>         0.1367
     40 H4          3.3052    1.9822   -0.0201 H         1 <0>         0.1383
     41 H5         -0.9252   -0.5577    0.0083 H         1 <0>         0.1349
     42 H6          0.3356   -2.3202   -1.9575 H         1 <0>         0.1490
     43 H7          1.9754   -7.5105    1.2804 H         1 <0>         0.1497
     44 H8         -0.1334   -7.7627   -3.1854 H         1 <0>         0.1324
     45 H9          0.0412  -10.8887   -1.4044 H         1 <0>         0.0801
     46 H10        -0.3607  -10.0863   -2.9416 H         1 <0>         0.0761
     47 H11         2.0434  -10.0436   -3.5477 H         1 <0>         0.0741
     48 H12         2.4452  -10.8460   -2.0105 H         1 <0>         0.0845
     49 H13         1.0558  -12.7932   -2.6637 H         1 <0>         0.0882
     50 H14         0.6539  -11.9908   -4.2009 H         1 <0>         0.0866
     51 H15         3.0580  -11.9481   -4.8070 H         1 <0>         0.1325
     52 H16         3.4598  -12.7505   -3.2698 H         1 <0>         0.1321
     53 H17         2.8939  -15.0092   -2.9027 H         1 <0>         0.1396
     54 H18         1.1789  -14.5722   -3.0959 H         1 <0>         0.1436
     55 H19         1.5706  -17.0083   -3.4794 H         1 <0>         0.1418
     56 H20         0.9526  -16.1958   -4.9386 H         1 <0>         0.0807
     57 H21         4.2721  -16.1461   -6.4783 H         1 <0>         0.1419
     58 H22         2.5735  -15.6785   -6.7379 H         1 <0>         0.0809
     59 H23         3.9146  -13.6991   -6.1328 H         1 <0>         0.1423
     60 H24         4.4634  -14.5083   -4.6450 H         1 <0>         0.1391
     61 H25         0.8923  -10.2803    0.9408 H         1 <0>         0.3888
     62 H26         3.1568   -3.5579    3.9036 H         1 <0>         0.4332
     63 H27         1.6787  -13.8651   -5.3186 H         1 <0>         0.4221
@<TRIPOS>BOND
     1    1    6 ar
     2    1    2 ar
     3    1   38 1
     4    2    3 ar
     5    2   39 1
     6    3    4 ar
     7    3   40 1
     8    4    5 ar
     9    4   37 1
    10    5    6 ar
    11    5    7 1
    12    6   41 1
    13    7   31 ar
    14    7    8 ar
    15    8    9 ar
    16    8   42 1
    17    9   17 1
    18    9   10 ar
    19   10   11 1
    20   10   30 ar
    21   11   16 ar
    22   11   12 ar
    23   12   13 ar
    24   12   43 1
    25   13   14 ar
    26   13   29 1
    27   14   15 ar
    28   14   19 1
    29   15   16 ar
    30   15   44 1
    31   16   17 1
    32   17   18 1
    33   19   20 1
    34   19   45 1
    35   19   46 1
    36   20   21 1
    37   20   47 1
    38   20   48 1
    39   21   22 1
    40   21   49 1
    41   21   50 1
    42   22   23 1
    43   22   51 1
    44   22   52 1
    45   23   28 1
    46   23   24 1
    47   23   63 1
    48   24   25 1
    49   24   53 1
    50   24   54 1
    51   25   26 1
    52   25   55 1
    53   25   56 1
    54   26   27 1
    55   27   28 1
    56   27   57 1
    57   27   58 1
    58   28   59 1
    59   28   60 1
    60   29   61 1
    61   30   35 1
    62   30   31 ar
    63   31   32 1
    64   32   33 2
    65   32   34 am
    66   34   35 am
    67   34   62 1
    68   35   36 2
@<TRIPOS>MOLECULE
CHEMBL386398
   36    40     0     0     0
SMALL
USER_CHARGES

@<TRIPOS>ATOM
      1 C1         -0.0166    1.3753    0.0096 C.ar      1 <0>        -0.1150
      2 C2          1.1702    2.0869    0.0021 C.ar      1 <0>        -0.0926
      3 C3          2.3823    1.4213   -0.0135 C.ar      1 <0>        -0.1081
      4 C4          2.4148    0.0403   -0.0217 C.ar      1 <0>         0.0008
      5 C5          1.2208   -0.6824   -0.0138 C.ar      1 <0>        -0.0591
      6 C6          0.0021   -0.0041    0.0020 C.ar      1 <0>        -0.0833
      7 C7          1.2477   -2.1632   -0.0230 C.ar      1 <0>         0.0575
      8 C8          0.7436   -2.8622   -1.1196 C.ar      1 <0>        -0.0734
      9 C9          0.7626   -4.2481   -1.1402 C.ar      1 <0>         0.1155
     10 C10         1.2959   -4.9565   -0.0443 C.ar      1 <0>        -0.0455
     11 C11         1.1618   -6.3822   -0.3896 C.ar      1 <0>        -0.1147
     12 C12         1.4936   -7.5684    0.2598 C.ar      1 <0>        -0.0754
     13 C13         1.2293   -8.7808   -0.3513 C.ar      1 <0>         0.0923
     14 C14         0.6356   -8.8116   -1.6082 C.ar      1 <0>        -0.0958
     15 C15         0.3051   -7.6405   -2.2566 C.ar      1 <0>        -0.0961
     16 C16         0.5626   -6.4135   -1.6572 C.ar      1 <0>         0.0822
     17 O1          0.3447   -5.1425   -2.0624 O.3       1 <0>        -0.1860
     18 O2          1.5506   -9.9430    0.2771 O.3       1 <0>        -0.4903
     19 C17         1.8023   -4.2676    1.0566 C.ar      1 <0>        -0.0847
     20 C18         1.7839   -2.8592    1.0660 C.ar      1 <0>        -0.1364
     21 C19         2.3894   -2.4545    2.3470 C.2       1 <0>         0.5793
     22 O3          2.5469   -1.3111    2.7269 O.2       1 <0>        -0.4404
     23 N1          2.7382   -3.5622    3.0258 N.am      1 <0>        -0.6780
     24 C20         2.4163   -4.6715    2.3361 C.2       1 <0>         0.5802
     25 O4          2.6121   -5.8141    2.6992 O.2       1 <0>        -0.4532
     26 Cl1         3.9369   -0.7942   -0.0425 Cl        1 <0>        -0.0607
     27 H1         -0.9598    1.9011    0.0260 H         1 <0>         0.1352
     28 H2          1.1498    3.1667    0.0081 H         1 <0>         0.1362
     29 H3          3.3052    1.9823   -0.0197 H         1 <0>         0.1383
     30 H4         -0.9252   -0.5577    0.0083 H         1 <0>         0.1366
     31 H5          0.3351   -2.3195   -1.9592 H         1 <0>         0.1596
     32 H6          1.9553   -7.5420    1.2358 H         1 <0>         0.1506
     33 H7          0.4318   -9.7610   -2.0808 H         1 <0>         0.1496
     34 H8         -0.1550   -7.6769   -3.2330 H         1 <0>         0.1465
     35 H9          0.8452  -10.2956    0.8368 H         1 <0>         0.3946
     36 H10         3.1579   -3.5613    3.9003 H         1 <0>         0.4339
@<TRIPOS>BOND
     1    1    6 ar
     2    1    2 ar
     3    1   27 1
     4    2    3 ar
     5    2   28 1
     6    3    4 ar
     7    3   29 1
     8    4    5 ar
     9    4   26 1
    10    5    6 ar
    11    5    7 1
    12    6   30 1
    13    7   20 ar
    14    7    8 ar
    15    8    9 ar
    16    8   31 1
    17    9   17 1
    18    9   10 ar
    19   10   11 1
    20   10   19 ar
    21   11   16 ar
    22   11   12 ar
    23   12   13 ar
    24   12   32 1
    25   13   14 ar
    26   13   18 1
    27   14   15 ar
    28   14   33 1
    29   15   16 ar
    30   15   34 1
    31   16   17 1
    32   18   35 1
    33   19   24 1
    34   19   20 ar
    35   20   21 1
    36   21   22 2
    37   21   23 am
    38   23   24 am
    39   23   36 1
    40   24   25 2
@<TRIPOS>MOLECULE
CHEMBL178510
   55    59     0     0     0
SMALL
USER_CHARGES

@<TRIPOS>ATOM
      1 C1         -0.0518    1.4095    0.7071 C.3       1 <0>         0.0700
      2 N1         -0.0222   -0.0407    0.5011 N.am      1 <0>        -0.5062
      3 C2         -1.1943   -0.7197    0.2832 C.ar      1 <0>         0.4667
      4 C3         -1.1833   -2.1170    0.0825 C.ar      1 <0>        -0.2765
      5 C4          0.0376   -2.8292    0.1045 C.2       1 <0>         0.0308
      6 C5          1.2022   -2.1432    0.3227 C.2       1 <0>        -0.1636
      7 C6          1.1560   -0.6931    0.5222 C.2       1 <0>         0.5577
      8 O1          2.1880   -0.0744    0.7124 O.2       1 <0>        -0.5024
      9 C7          2.4981   -2.8608    0.3520 C.ar      1 <0>        -0.0102
     10 C8          2.9865   -3.3765    1.5532 C.ar      1 <0>        -0.0067
     11 C9          4.1950   -4.0448    1.5735 C.ar      1 <0>        -0.1061
     12 C10         4.9210   -4.2031    0.4068 C.ar      1 <0>        -0.0874
     13 C11         4.4428   -3.6939   -0.7871 C.ar      1 <0>        -0.1061
     14 C12         3.2327   -3.0289   -0.8224 C.ar      1 <0>        -0.0067
     15 Cl1         2.6309   -2.3969   -2.3230 Cl        1 <0>        -0.0503
     16 Cl2         2.0773   -3.1780    3.0187 Cl        1 <0>        -0.0501
     17 C13        -2.4037   -2.7731   -0.1376 C.ar      1 <0>         0.2639
     18 N2         -3.5127   -2.0575   -0.1481 N.ar      1 <0>        -0.5672
     19 C14        -3.4850   -0.7433    0.0446 C.ar      1 <0>         0.6082
     20 N3         -2.3583   -0.0805    0.2560 N.ar      1 <0>        -0.5948
     21 N4         -4.6757   -0.0424    0.0236 N.pl3     1 <0>        -0.6263
     22 C15        -5.8891   -0.7288   -0.0804 C.ar      1 <0>         0.1546
     23 C16        -6.0350   -1.9780    0.5093 C.ar      1 <0>        -0.1058
     24 C17        -7.2351   -2.6533    0.4047 C.ar      1 <0>        -0.0946
     25 C18        -8.2907   -2.0876   -0.2865 C.ar      1 <0>        -0.0968
     26 C19        -8.1487   -0.8443   -0.8752 C.ar      1 <0>        -0.0946
     27 C20        -6.9534   -0.1607   -0.7687 C.ar      1 <0>        -0.1406
     28 C21        -9.5986   -2.8277   -0.3991 C.3       1 <0>        -0.0773
     29 C22       -10.5007   -2.4509    0.7779 C.3       1 <0>        -0.1150
     30 C23       -11.8285   -3.2024    0.6637 C.3       1 <0>        -0.0785
     31 C24       -12.7306   -2.8256    1.8406 C.3       1 <0>         0.0156
     32 N5        -12.1511   -3.2997    3.1087 N.2       1 <0>        -0.1260
     33 N6        -12.9710   -4.0964    3.5856 N.2       1 <0>        -0.0495
     34 N7        -14.0920   -4.2387    2.7719 N.2       1 <0>        -0.0483
     35 N8        -14.0173   -3.5366    1.7542 N.2       1 <0>        -0.1303
     36 H1          0.9636    1.7757    0.8589 H         1 <0>         0.1008
     37 H2         -0.4849    1.8921   -0.1690 H         1 <0>         0.0801
     38 H3         -0.6560    1.6395    1.5846 H         1 <0>         0.0803
     39 H4          0.0515   -3.8982   -0.0482 H         1 <0>         0.1507
     40 H5          4.5741   -4.4445    2.5025 H         1 <0>         0.1439
     41 H6          5.8656   -4.7262    0.4282 H         1 <0>         0.1455
     42 H7          5.0148   -3.8202   -1.6944 H         1 <0>         0.1438
     43 H8         -2.4351   -3.8410   -0.2954 H         1 <0>         0.1881
     44 H9         -4.6695    0.9259    0.0810 H         1 <0>         0.4264
     45 H10        -5.2107   -2.4207    1.0488 H         1 <0>         0.1352
     46 H11        -7.3491   -3.6246    0.8630 H         1 <0>         0.1256
     47 H12        -8.9750   -0.4054   -1.4147 H         1 <0>         0.1265
     48 H13        -6.8447    0.8124   -1.2246 H         1 <0>         0.1255
     49 H14       -10.0895   -2.5578   -1.3341 H         1 <0>         0.0764
     50 H15        -9.4110   -3.9013   -0.3839 H         1 <0>         0.0752
     51 H16       -10.0097   -2.7208    1.7129 H         1 <0>         0.0799
     52 H17       -10.6883   -1.3773    0.7627 H         1 <0>         0.0749
     53 H18       -12.3195   -2.9325   -0.2713 H         1 <0>         0.1043
     54 H19       -11.6409   -4.2760    0.6788 H         1 <0>         0.0799
     55 H20       -12.8901   -1.7477    1.8694 H         1 <0>         0.1874
@<TRIPOS>BOND
     1    1    2 1
     2    1   36 1
     3    1   37 1
     4    1   38 1
     5    2    7 am
     6    2    3 1
     7    3   20 ar
     8    3    4 ar
     9    4    5 1
    10    4   17 ar
    11    5    6 2
    12    5   39 1
    13    6    7 1
    14    6    9 1
    15    7    8 2
    16    9   14 ar
    17    9   10 ar
    18   10   11 ar
    19   10   16 1
    20   11   12 ar
    21   11   40 1
    22   12   13 ar
    23   12   41 1
    24   13   14 ar
    25   13   42 1
    26   14   15 1
    27   17   18 ar
    28   17   43 1
    29   18   19 ar
    30   19   20 ar
    31   19   21 1
    32   21   22 1
    33   21   44 1
    34   22   27 ar
    35   22   23 ar
    36   23   24 ar
    37   23   45 1
    38   24   25 ar
    39   24   46 1
    40   25   26 ar
    41   25   28 1
    42   26   27 ar
    43   26   47 1
    44   27   48 1
    45   28   29 1
    46   28   49 1
    47   28   50 1
    48   29   30 1
    49   29   51 1
    50   29   52 1
    51   30   31 1
    52   30   53 1
    53   30   54 1
    54   31   35 1
    55   31   32 1
    56   31   55 1
    57   32   33 2
    58   33   34 1
    59   34   35 2
@<TRIPOS>MOLECULE
CHEMBL181285
   53    56     0     0     0
SMALL
USER_CHARGES

@<TRIPOS>ATOM
      1 C1         -0.0520    1.4098    0.7070 C.3       1 <0>         0.0710
      2 N1         -0.0222   -0.0403    0.5009 N.am      1 <0>        -0.5067
      3 C2         -1.1944   -0.7195    0.2829 C.ar      1 <0>         0.4676
      4 C3         -1.1832   -2.1169    0.0825 C.ar      1 <0>        -0.2850
      5 C4          0.0377   -2.8289    0.1047 C.2       1 <0>         0.0386
      6 C5          1.2023   -2.1428    0.3229 C.2       1 <0>        -0.1751
      7 C6          1.1560   -0.6926    0.5217 C.2       1 <0>         0.5598
      8 O1          2.1880   -0.0737    0.7111 O.2       1 <0>        -0.5090
      9 C7          2.4982   -2.8602    0.3520 C.ar      1 <0>        -0.0049
     10 C8          2.9868   -3.3760    1.5530 C.ar      1 <0>        -0.0072
     11 C9          4.1954   -4.0442    1.5731 C.ar      1 <0>        -0.1071
     12 C10         4.9214   -4.2022    0.4063 C.ar      1 <0>        -0.0898
     13 C11         4.4427   -3.6933   -0.7876 C.ar      1 <0>        -0.1071
     14 C12         3.2328   -3.0281   -0.8226 C.ar      1 <0>        -0.0072
     15 Cl1         2.6306   -2.3960   -2.3231 Cl        1 <0>        -0.0499
     16 Cl2         2.0779   -3.1778    3.0186 Cl        1 <0>        -0.0498
     17 C13        -2.4036   -2.7731   -0.1375 C.ar      1 <0>         0.2666
     18 N2         -3.5126   -2.0576   -0.1483 N.ar      1 <0>        -0.5652
     19 C14        -3.4851   -0.7434    0.0442 C.ar      1 <0>         0.6110
     20 N3         -2.3584   -0.0803    0.2556 N.ar      1 <0>        -0.5994
     21 N4         -4.6754   -0.0427    0.0225 N.pl3     1 <0>        -0.6177
     22 C15        -5.8907   -0.7302   -0.0820 C.ar      1 <0>         0.1005
     23 C16        -6.0356   -1.9788    0.5084 C.ar      1 <0>        -0.0662
     24 C17        -7.2346   -2.6560    0.4052 C.ar      1 <0>        -0.1383
     25 C18        -8.2941   -2.0896   -0.2883 C.ar      1 <0>         0.1329
     26 C19        -8.1501   -0.8426   -0.8787 C.ar      1 <0>        -0.1927
     27 C20        -6.9536   -0.1614   -0.7713 C.ar      1 <0>        -0.0967
     28 O2         -9.4743   -2.7572   -0.3897 O.3       1 <0>        -0.3102
     29 C21       -10.5225   -2.1149   -1.1182 C.3       1 <0>         0.0579
     30 C22       -11.7627   -3.0110   -1.1243 C.3       1 <0>        -0.0923
     31 C23       -12.8850   -2.3232   -1.9043 C.3       1 <0>        -0.1806
     32 C24       -14.1065   -3.2058   -1.9104 C.2       1 <0>         0.4908
     33 O3        -14.0817   -4.2849   -1.3433 O.co2     1 <0>        -0.6954
     34 O4        -15.1195   -2.8408   -2.4822 O.co2     1 <0>        -0.7047
     35 H1          0.9633    1.7761    0.8588 H         1 <0>         0.0990
     36 H2         -0.4853    1.8925   -0.1690 H         1 <0>         0.0795
     37 H3         -0.6562    1.6397    1.5846 H         1 <0>         0.0797
     38 H4          0.0517   -3.8980   -0.0477 H         1 <0>         0.1493
     39 H5          4.5747   -4.4439    2.5020 H         1 <0>         0.1427
     40 H6          5.8662   -4.7249    0.4275 H         1 <0>         0.1440
     41 H7          5.0143   -3.8200   -1.6951 H         1 <0>         0.1426
     42 H8         -2.4348   -3.8411   -0.2952 H         1 <0>         0.1876
     43 H9         -4.6693    0.9256    0.0796 H         1 <0>         0.4245
     44 H10        -5.2106   -2.4202    1.0477 H         1 <0>         0.1386
     45 H11        -7.3474   -3.6270    0.8644 H         1 <0>         0.1353
     46 H12        -8.9752   -0.4026   -1.4191 H         1 <0>         0.1346
     47 H13        -6.8431    0.8114   -1.2272 H         1 <0>         0.1262
     48 H14       -10.7641   -1.1634   -0.6444 H         1 <0>         0.0582
     49 H15       -10.1970   -1.9380   -2.1434 H         1 <0>         0.0583
     50 H16       -11.5211   -3.9624   -1.5981 H         1 <0>         0.0718
     51 H17       -12.0882   -3.1878   -0.0992 H         1 <0>         0.0717
     52 H18       -13.1265   -1.3717   -1.4305 H         1 <0>         0.0590
     53 H19       -12.5595   -2.1463   -2.9294 H         1 <0>         0.0591
@<TRIPOS>BOND
     1    1    2 1
     2    1   35 1
     3    1   36 1
     4    1   37 1
     5    2    7 am
     6    2    3 1
     7    3   20 ar
     8    3    4 ar
     9    4    5 1
    10    4   17 ar
    11    5    6 2
    12    5   38 1
    13    6    7 1
    14    6    9 1
    15    7    8 2
    16    9   14 ar
    17    9   10 ar
    18   10   11 ar
    19   10   16 1
    20   11   12 ar
    21   11   39 1
    22   12   13 ar
    23   12   40 1
    24   13   14 ar
    25   13   41 1
    26   14   15 1
    27   17   18 ar
    28   17   42 1
    29   18   19 ar
    30   19   20 ar
    31   19   21 1
    32   21   22 1
    33   21   43 1
    34   22   27 ar
    35   22   23 ar
    36   23   24 ar
    37   23   44 1
    38   24   25 ar
    39   24   45 1
    40   25   26 ar
    41   25   28 1
    42   26   27 ar
    43   26   46 1
    44   27   47 1
    45   28   29 1
    46   29   30 1
    47   29   48 1
    48   29   49 1
    49   30   31 1
    50   30   50 1
    51   30   51 1
    52   31   32 1
    53   31   52 1
    54   31   53 1
    55   32   33 2
    56   32   34 1
@<TRIPOS>MOLECULE
CHEMBL270866
   64    69     0     0     0
SMALL
USER_CHARGES

@<TRIPOS>ATOM
      1 C1         -0.0178    1.4608    0.0101 C.3       1 <0>         0.0757
      2 N1          0.0021   -0.0041    0.0020 N.pl3     1 <0>        -0.5001
      3 C2          0.0074   -0.7864   -1.1360 C.ar      1 <0>         0.1793
      4 C3         -0.0040   -0.4611   -2.4860 C.ar      1 <0>        -0.1046
      5 C4          0.0040   -1.4627   -3.4546 C.ar      1 <0>         0.0681
      6 C5          0.0241   -2.8096   -3.0714 C.ar      1 <0>        -0.1476
      7 C6          0.0362   -3.1494   -1.7056 C.ar      1 <0>        -0.0729
      8 C7          0.0277   -2.1405   -0.7412 C.ar      1 <0>        -0.0477
      9 C8          0.0345   -2.1453    0.7309 C.ar      1 <0>        -0.0544
     10 C9          0.0242   -0.8012    1.1349 C.ar      1 <0>         0.1249
     11 C10         0.0328   -0.4970    2.4921 C.ar      1 <0>        -0.0447
     12 C11         0.0556   -1.5089    3.4280 C.ar      1 <0>        -0.4582
     13 C12         0.0703   -2.8408    3.0289 C.ar      1 <0>         0.1339
     14 C13         0.0528   -3.1624    1.6844 C.ar      1 <0>        -0.0870
     15 O1          0.0937   -3.8290    3.9629 O.3       1 <0>        -0.4713
     16 S1          0.0669   -1.1112    5.1445 S.o       1 <0>         1.3521
     17 O2          0.7685   -2.1922    5.7432 O.2       1 <0>        -0.8082
     18 C14        -1.6811   -1.1853    5.6237 C.3       1 <0>        -0.4785
     19 C15        -1.8164   -0.8558    7.1116 C.3       1 <0>        -0.1256
     20 C16        -3.2907   -0.9184    7.5158 C.3       1 <0>        -0.0010
     21 N2         -3.4206   -0.6021    8.9444 N.4       1 <0>        -0.3969
     22 C17        -3.0954    0.8273    9.1842 C.3       1 <0>        -0.0091
     23 C18        -3.7983    1.1297   10.5314 C.3       1 <0>        -0.1462
     24 C19        -5.1093    0.3169   10.4274 C.3       1 <0>        -0.1456
     25 C20        -4.8236   -0.7748    9.3795 C.3       1 <0>        -0.0089
     26 C21         0.0554   -4.6240   -1.6557 C.2       1 <0>         0.5793
     27 O3          0.0694   -5.2996   -0.6461 O.2       1 <0>        -0.4578
     28 N3          0.0542   -5.0945   -2.9160 N.am      1 <0>        -0.6791
     29 C22         0.0363   -4.0863   -3.8064 C.2       1 <0>         0.5771
     30 O4          0.0304   -4.2084   -5.0154 O.2       1 <0>        -0.4397
     31 C23        -0.0093   -1.1024   -4.8913 C.ar      1 <0>        -0.0620
     32 C24         1.0740   -0.4278   -5.4542 C.ar      1 <0>        -0.0846
     33 C25         1.0559   -0.0949   -6.7928 C.ar      1 <0>        -0.1144
     34 C26        -0.0339   -0.4286   -7.5777 C.ar      1 <0>        -0.0918
     35 C27        -1.1115   -1.0974   -7.0266 C.ar      1 <0>        -0.1080
     36 C28        -1.1033   -1.4416   -5.6887 C.ar      1 <0>         0.0006
     37 Cl1        -2.4535   -2.2875   -4.9995 Cl        1 <0>        -0.0627
     38 H1          1.0048    1.8381    0.0023 H         1 <0>         0.0784
     39 H2         -0.5450    1.8219   -0.8730 H         1 <0>         0.0892
     40 H3         -0.5280    1.8123    0.9069 H         1 <0>         0.0886
     41 H4         -0.0195    0.5759   -2.7873 H         1 <0>         0.1492
     42 H5          0.0219    0.5341    2.8134 H         1 <0>         0.1458
     43 H6          0.0654   -4.1967    1.3739 H         1 <0>         0.1518
     44 H7         -0.7828   -4.1272    4.2421 H         1 <0>         0.3818
     45 H8         -2.2492   -0.4624    5.0383 H         1 <0>         0.1250
     46 H9         -2.0668   -2.1875    5.4369 H         1 <0>         0.0951
     47 H10        -1.2482   -1.5788    7.6970 H         1 <0>         0.0906
     48 H11        -1.4306    0.1464    7.2984 H         1 <0>         0.0972
     49 H12        -3.8589   -0.1954    6.9305 H         1 <0>         0.1321
     50 H13        -3.6765   -1.9206    7.3290 H         1 <0>         0.1279
     51 H14        -2.0180    0.9670    9.2726 H         1 <0>         0.1369
     52 H15        -3.5016    1.4528    8.3894 H         1 <0>         0.1353
     53 H16        -3.1938    0.7810   11.3687 H         1 <0>         0.0982
     54 H17        -4.0111    2.1946   10.6249 H         1 <0>         0.1170
     55 H18        -5.3511   -0.1357   11.3890 H         1 <0>         0.1048
     56 H19        -5.9259    0.9572   10.0937 H         1 <0>         0.1036
     57 H20        -5.4937   -0.6565    8.5279 H         1 <0>         0.1301
     58 H21        -4.9555   -1.7607    9.8251 H         1 <0>         0.1313
     59 H22         0.0653   -6.0354   -3.1513 H         1 <0>         0.4338
     60 H23         1.9253   -0.1663   -4.8431 H         1 <0>         0.1351
     61 H24         1.8942    0.4278   -7.2293 H         1 <0>         0.1355
     62 H25        -0.0430   -0.1652   -8.6250 H         1 <0>         0.1370
     63 H26        -1.9592   -1.3550   -7.6442 H         1 <0>         0.1385
     64 H27        -2.8120   -1.1945    9.4891 H         1 <0>         0.4275
@<TRIPOS>BOND
     1    1    2 1
     2    1   38 1
     3    1   39 1
     4    1   40 1
     5    2   10 1
     6    2    3 1
     7    3    8 ar
     8    3    4 ar
     9    4    5 ar
    10    4   41 1
    11    5    6 ar
    12    5   31 1
    13    6   29 1
    14    6    7 ar
    15    7    8 ar
    16    7   26 1
    17    8    9 1
    18    9   14 ar
    19    9   10 ar
    20   10   11 ar
    21   11   12 ar
    22   11   42 1
    23   12   13 ar
    24   12   16 1
    25   13   14 ar
    26   13   15 1
    27   14   43 1
    28   15   44 1
    29   16   17 2
    30   16   18 1
    31   18   19 1
    32   18   45 1
    33   18   46 1
    34   19   20 1
    35   19   47 1
    36   19   48 1
    37   20   21 1
    38   20   49 1
    39   20   50 1
    40   21   25 1
    41   21   22 1
    42   21   64 1
    43   22   23 1
    44   22   51 1
    45   22   52 1
    46   23   24 1
    47   23   53 1
    48   23   54 1
    49   24   25 1
    50   24   55 1
    51   24   56 1
    52   25   57 1
    53   25   58 1
    54   26   27 2
    55   26   28 am
    56   28   29 am
    57   28   59 1
    58   29   30 2
    59   31   36 ar
    60   31   32 ar
    61   32   33 ar
    62   32   60 1
    63   33   34 ar
    64   33   61 1
    65   34   35 ar
    66   34   62 1
    67   35   36 ar
    68   35   63 1
    69   36   37 1
@<TRIPOS>MOLECULE
CHEMBL270866
   63    68     0     0     0
SMALL
USER_CHARGES

@<TRIPOS>ATOM
      1 C1         -0.0178    1.4608    0.0101 C.3       1 <0>         0.0881
      2 N1          0.0021   -0.0041    0.0020 N.pl3     1 <0>        -0.5012
      3 C2          0.0074   -0.7864   -1.1360 C.ar      1 <0>         0.1935
      4 C3         -0.0040   -0.4611   -2.4860 C.ar      1 <0>        -0.1331
      5 C4          0.0040   -1.4627   -3.4546 C.ar      1 <0>         0.0581
      6 C5          0.0241   -2.8096   -3.0714 C.ar      1 <0>        -0.1815
      7 C6          0.0362   -3.1494   -1.7056 C.ar      1 <0>        -0.0725
      8 C7          0.0277   -2.1405   -0.7412 C.ar      1 <0>        -0.0419
      9 C8          0.0345   -2.1453    0.7309 C.ar      1 <0>        -0.0285
     10 C9          0.0242   -0.8012    1.1349 C.ar      1 <0>        -0.0061
     11 C10         0.0328   -0.4970    2.4921 C.ar      1 <0>        -0.0086
     12 C11         0.0556   -1.5089    3.4280 C.ar      1 <0>        -0.5753
     13 C12         0.0703   -2.8408    3.0289 C.ar      1 <0>         0.2997
     14 C13         0.0528   -3.1624    1.6844 C.ar      1 <0>        -0.1948
     15 O1          0.0937   -3.8290    3.9629 O.3       1 <0>        -0.6815
     16 S1          0.0669   -1.1112    5.1445 S.o       1 <0>         1.3348
     17 O2          0.7685   -2.1922    5.7432 O.2       1 <0>        -0.8236
     18 C14        -1.6811   -1.1853    5.6237 C.3       1 <0>        -0.4826
     19 C15        -1.8164   -0.8558    7.1116 C.3       1 <0>        -0.1181
     20 C16        -3.2907   -0.9184    7.5158 C.3       1 <0>        -0.0025
     21 N2         -3.4206   -0.6021    8.9444 N.4       1 <0>        -0.3959
     22 C17        -3.0954    0.8273    9.1842 C.3       1 <0>        -0.0081
     23 C18        -3.7983    1.1297   10.5314 C.3       1 <0>        -0.1456
     24 C19        -5.1093    0.3169   10.4274 C.3       1 <0>        -0.1442
     25 C20        -4.8236   -0.7748    9.3795 C.3       1 <0>        -0.0095
     26 C21         0.0554   -4.6240   -1.6557 C.2       1 <0>         0.5716
     27 O3          0.0694   -5.2996   -0.6461 O.2       1 <0>        -0.4485
     28 N3          0.0542   -5.0945   -2.9160 N.am      1 <0>        -0.6841
     29 C22         0.0363   -4.0863   -3.8064 C.2       1 <0>         0.5829
     30 O4          0.0304   -4.2084   -5.0154 O.2       1 <0>        -0.4650
     31 C23        -0.0093   -1.1024   -4.8913 C.ar      1 <0>        -0.0427
     32 C24         1.0740   -0.4278   -5.4542 C.ar      1 <0>        -0.0882
     33 C25         1.0559   -0.0949   -6.7928 C.ar      1 <0>        -0.1175
     34 C26        -0.0339   -0.4286   -7.5777 C.ar      1 <0>        -0.1017
     35 C27        -1.1115   -1.0974   -7.0266 C.ar      1 <0>        -0.1110
     36 C28        -1.1033   -1.4416   -5.6887 C.ar      1 <0>        -0.0007
     37 Cl1        -2.4535   -2.2875   -4.9995 Cl        1 <0>        -0.0622
     38 H1          1.0048    1.8381    0.0023 H         1 <0>         0.0638
     39 H2         -0.5450    1.8219   -0.8730 H         1 <0>         0.0749
     40 H3         -0.5280    1.8123    0.9069 H         1 <0>         0.0794
     41 H4         -0.0195    0.5759   -2.7873 H         1 <0>         0.1368
     42 H5          0.0219    0.5341    2.8134 H         1 <0>         0.1107
     43 H6          0.0654   -4.1967    1.3739 H         1 <0>         0.1220
     44 H7         -2.2492   -0.4624    5.0383 H         1 <0>         0.1083
     45 H8         -2.0668   -2.1875    5.4369 H         1 <0>         0.0946
     46 H9         -1.2482   -1.5788    7.6970 H         1 <0>         0.0853
     47 H10        -1.4306    0.1464    7.2984 H         1 <0>         0.0887
     48 H11        -3.8589   -0.1954    6.9305 H         1 <0>         0.1292
     49 H12        -3.6765   -1.9206    7.3290 H         1 <0>         0.1270
     50 H13        -2.0180    0.9670    9.2726 H         1 <0>         0.1369
     51 H14        -3.5016    1.4528    8.3894 H         1 <0>         0.1344
     52 H15        -3.1938    0.7810   11.3687 H         1 <0>         0.0963
     53 H16        -4.0111    2.1946   10.6249 H         1 <0>         0.1142
     54 H17        -5.3511   -0.1357   11.3890 H         1 <0>         0.1018
     55 H18        -5.9259    0.9572   10.0937 H         1 <0>         0.1013
     56 H19        -5.4937   -0.6565    8.5279 H         1 <0>         0.1291
     57 H20        -4.9555   -1.7607    9.8251 H         1 <0>         0.1292
     58 H21         0.0653   -6.0354   -3.1513 H         1 <0>         0.4264
     59 H22         1.9253   -0.1663   -4.8431 H         1 <0>         0.1340
     60 H23         1.8942    0.4278   -7.2293 H         1 <0>         0.1309
     61 H24        -0.0430   -0.1652   -8.6250 H         1 <0>         0.1318
     62 H25        -1.9592   -1.3550   -7.6442 H         1 <0>         0.1341
     63 H26        -2.8120   -1.1945    9.4891 H         1 <0>         0.4267
@<TRIPOS>BOND
     1    1    2 1
     2    1   38 1
     3    1   39 1
     4    1   40 1
     5    2   10 1
     6    2    3 1
     7    3    8 ar
     8    3    4 ar
     9    4    5 ar
    10    4   41 1
    11    5    6 ar
    12    5   31 1
    13    6   29 1
    14    6    7 ar
    15    7    8 ar
    16    7   26 1
    17    8    9 1
    18    9   14 ar
    19    9   10 ar
    20   10   11 ar
    21   11   12 ar
    22   11   42 1
    23   12   13 ar
    24   12   16 1
    25   13   14 ar
    26   13   15 1
    27   14   43 1
    28   16   17 2
    29   16   18 1
    30   18   19 1
    31   18   44 1
    32   18   45 1
    33   19   20 1
    34   19   46 1
    35   19   47 1
    36   20   21 1
    37   20   48 1
    38   20   49 1
    39   21   25 1
    40   21   22 1
    41   21   63 1
    42   22   23 1
    43   22   50 1
    44   22   51 1
    45   23   24 1
    46   23   52 1
    47   23   53 1
    48   24   25 1
    49   24   54 1
    50   24   55 1
    51   25   56 1
    52   25   57 1
    53   26   27 2
    54   26   28 am
    55   28   29 am
    56   28   58 1
    57   29   30 2
    58   31   36 ar
    59   31   32 ar
    60   32   33 ar
    61   32   59 1
    62   33   34 ar
    63   33   60 1
    64   34   35 ar
    65   34   61 1
    66   35   36 ar
    67   35   62 1
    68   36   37 1
@<TRIPOS>MOLECULE
CHEMBL270866
   64    69     0     0     0
SMALL
USER_CHARGES

@<TRIPOS>ATOM
      1 C1         -0.0178    1.4608    0.0101 C.3       1 <0>         0.0757
      2 N1          0.0021   -0.0041    0.0020 N.pl3     1 <0>        -0.5000
      3 C2          0.0074   -0.7864   -1.1360 C.ar      1 <0>         0.1786
      4 C3         -0.0040   -0.4611   -2.4860 C.ar      1 <0>        -0.1047
      5 C4          0.0040   -1.4627   -3.4546 C.ar      1 <0>         0.0687
      6 C5          0.0241   -2.8096   -3.0714 C.ar      1 <0>        -0.1479
      7 C6          0.0362   -3.1494   -1.7056 C.ar      1 <0>        -0.0722
      8 C7          0.0277   -2.1405   -0.7412 C.ar      1 <0>        -0.0472
      9 C8          0.0345   -2.1453    0.7309 C.ar      1 <0>        -0.0534
     10 C9          0.0242   -0.8012    1.1349 C.ar      1 <0>         0.1269
     11 C10         0.0328   -0.4970    2.4921 C.ar      1 <0>        -0.0528
     12 C11         0.0556   -1.5089    3.4280 C.ar      1 <0>        -0.4559
     13 C12         0.0703   -2.8408    3.0289 C.ar      1 <0>         0.1472
     14 C13         0.0528   -3.1624    1.6844 C.ar      1 <0>        -0.0847
     15 O1          0.0937   -3.8290    3.9629 O.3       1 <0>        -0.4829
     16 S1          0.0669   -1.1112    5.1445 S.o       1 <0>         1.3666
     17 O2          0.5115    0.2380    5.1818 O.2       1 <0>        -0.8394
     18 C14        -1.6811   -1.1853    5.6237 C.3       1 <0>        -0.4770
     19 C15        -1.8164   -0.8558    7.1116 C.3       1 <0>        -0.1266
     20 C16        -3.2907   -0.9184    7.5158 C.3       1 <0>        -0.0010
     21 N2         -3.4206   -0.6021    8.9444 N.4       1 <0>        -0.3955
     22 C17        -3.0954    0.8273    9.1842 C.3       1 <0>        -0.0095
     23 C18        -3.7983    1.1297   10.5314 C.3       1 <0>        -0.1456
     24 C19        -5.1093    0.3169   10.4274 C.3       1 <0>        -0.1458
     25 C20        -4.8236   -0.7748    9.3795 C.3       1 <0>        -0.0084
     26 C21         0.0554   -4.6240   -1.6557 C.2       1 <0>         0.5810
     27 O3          0.0694   -5.2996   -0.6461 O.2       1 <0>        -0.4576
     28 N3          0.0542   -5.0945   -2.9160 N.am      1 <0>        -0.6788
     29 C22         0.0363   -4.0863   -3.8064 C.2       1 <0>         0.5773
     30 O4          0.0304   -4.2084   -5.0154 O.2       1 <0>        -0.4392
     31 C23        -0.0093   -1.1024   -4.8913 C.ar      1 <0>        -0.0623
     32 C24         1.0740   -0.4278   -5.4542 C.ar      1 <0>        -0.0846
     33 C25         1.0559   -0.0949   -6.7928 C.ar      1 <0>        -0.1143
     34 C26        -0.0339   -0.4286   -7.5777 C.ar      1 <0>        -0.0916
     35 C27        -1.1115   -1.0974   -7.0266 C.ar      1 <0>        -0.1079
     36 C28        -1.1033   -1.4416   -5.6887 C.ar      1 <0>         0.0007
     37 Cl1        -2.4535   -2.2875   -4.9995 Cl        1 <0>        -0.0626
     38 H1          1.0048    1.8381    0.0023 H         1 <0>         0.0788
     39 H2         -0.5450    1.8219   -0.8730 H         1 <0>         0.0908
     40 H3         -0.5280    1.8123    0.9069 H         1 <0>         0.0853
     41 H4         -0.0195    0.5759   -2.7873 H         1 <0>         0.1486
     42 H5          0.0219    0.5341    2.8134 H         1 <0>         0.1377
     43 H6          0.0654   -4.1967    1.3739 H         1 <0>         0.1571
     44 H7         -0.7828   -4.1272    4.2421 H         1 <0>         0.3919
     45 H8         -2.2492   -0.4624    5.0383 H         1 <0>         0.0970
     46 H9         -2.0668   -2.1875    5.4369 H         1 <0>         0.1254
     47 H10        -1.2482   -1.5788    7.6970 H         1 <0>         0.1004
     48 H11        -1.4306    0.1464    7.2984 H         1 <0>         0.0893
     49 H12        -3.8589   -0.1954    6.9305 H         1 <0>         0.1270
     50 H13        -3.6765   -1.9206    7.3290 H         1 <0>         0.1338
     51 H14        -2.0180    0.9670    9.2726 H         1 <0>         0.1364
     52 H15        -3.5016    1.4528    8.3894 H         1 <0>         0.1323
     53 H16        -3.1938    0.7810   11.3687 H         1 <0>         0.0992
     54 H17        -4.0111    2.1946   10.6249 H         1 <0>         0.1162
     55 H18        -5.3511   -0.1357   11.3890 H         1 <0>         0.1058
     56 H19        -5.9259    0.9572   10.0937 H         1 <0>         0.1029
     57 H20        -5.4937   -0.6565    8.5279 H         1 <0>         0.1294
     58 H21        -4.9555   -1.7607    9.8251 H         1 <0>         0.1333
     59 H22         0.0653   -6.0354   -3.1513 H         1 <0>         0.4341
     60 H23         1.9253   -0.1663   -4.8431 H         1 <0>         0.1350
     61 H24         1.8942    0.4278   -7.2293 H         1 <0>         0.1355
     62 H25        -0.0430   -0.1652   -8.6250 H         1 <0>         0.1371
     63 H26        -1.9592   -1.3550   -7.6442 H         1 <0>         0.1387
     64 H27        -2.8120   -1.1945    9.4891 H         1 <0>         0.4278
@<TRIPOS>BOND
     1    1    2 1
     2    1   38 1
     3    1   39 1
     4    1   40 1
     5    2   10 1
     6    2    3 1
     7    3    8 ar
     8    3    4 ar
     9    4    5 ar
    10    4   41 1
    11    5    6 ar
    12    5   31 1
    13    6   29 1
    14    6    7 ar
    15    7    8 ar
    16    7   26 1
    17    8    9 1
    18    9   14 ar
    19    9   10 ar
    20   10   11 ar
    21   11   12 ar
    22   11   42 1
    23   12   13 ar
    24   12   16 1
    25   13   14 ar
    26   13   15 1
    27   14   43 1
    28   15   44 1
    29   16   17 2
    30   16   18 1
    31   18   19 1
    32   18   45 1
    33   18   46 1
    34   19   20 1
    35   19   47 1
    36   19   48 1
    37   20   21 1
    38   20   49 1
    39   20   50 1
    40   21   25 1
    41   21   22 1
    42   21   64 1
    43   22   23 1
    44   22   51 1
    45   22   52 1
    46   23   24 1
    47   23   53 1
    48   23   54 1
    49   24   25 1
    50   24   55 1
    51   24   56 1
    52   25   57 1
    53   25   58 1
    54   26   27 2
    55   26   28 am
    56   28   29 am
    57   28   59 1
    58   29   30 2
    59   31   36 ar
    60   31   32 ar
    61   32   33 ar
    62   32   60 1
    63   33   34 ar
    64   33   61 1
    65   34   35 ar
    66   34   62 1
    67   35   36 ar
    68   35   63 1
    69   36   37 1
@<TRIPOS>MOLECULE
CHEMBL270866
   63    68     0     0     0
SMALL
USER_CHARGES

@<TRIPOS>ATOM
      1 C1         -0.0178    1.4608    0.0101 C.3       1 <0>         0.0878
      2 N1          0.0021   -0.0041    0.0020 N.pl3     1 <0>        -0.5018
      3 C2          0.0074   -0.7864   -1.1360 C.ar      1 <0>         0.1932
      4 C3         -0.0040   -0.4611   -2.4860 C.ar      1 <0>        -0.1324
      5 C4          0.0040   -1.4627   -3.4546 C.ar      1 <0>         0.0591
      6 C5          0.0241   -2.8096   -3.0714 C.ar      1 <0>        -0.1812
      7 C6          0.0362   -3.1494   -1.7056 C.ar      1 <0>        -0.0708
      8 C7          0.0277   -2.1405   -0.7412 C.ar      1 <0>        -0.0430
      9 C8          0.0345   -2.1453    0.7309 C.ar      1 <0>        -0.0256
     10 C9          0.0242   -0.8012    1.1349 C.ar      1 <0>         0.0014
     11 C10         0.0328   -0.4970    2.4921 C.ar      1 <0>        -0.0158
     12 C11         0.0556   -1.5089    3.4280 C.ar      1 <0>        -0.5659
     13 C12         0.0703   -2.8408    3.0289 C.ar      1 <0>         0.3163
     14 C13         0.0528   -3.1624    1.6844 C.ar      1 <0>        -0.1936
     15 O1          0.0937   -3.8290    3.9629 O.3       1 <0>        -0.7011
     16 S1          0.0669   -1.1112    5.1445 S.o       1 <0>         1.3636
     17 O2          0.5115    0.2380    5.1818 O.2       1 <0>        -0.8897
     18 C14        -1.6811   -1.1853    5.6237 C.3       1 <0>        -0.4737
     19 C15        -1.8164   -0.8558    7.1116 C.3       1 <0>        -0.1194
     20 C16        -3.2907   -0.9184    7.5158 C.3       1 <0>        -0.0025
     21 N2         -3.4206   -0.6021    8.9444 N.4       1 <0>        -0.3945
     22 C17        -3.0954    0.8273    9.1842 C.3       1 <0>        -0.0086
     23 C18        -3.7983    1.1297   10.5314 C.3       1 <0>        -0.1450
     24 C19        -5.1093    0.3169   10.4274 C.3       1 <0>        -0.1444
     25 C20        -4.8236   -0.7748    9.3795 C.3       1 <0>        -0.0090
     26 C21         0.0554   -4.6240   -1.6557 C.2       1 <0>         0.5733
     27 O3          0.0694   -5.2996   -0.6461 O.2       1 <0>        -0.4479
     28 N3          0.0542   -5.0945   -2.9160 N.am      1 <0>        -0.6836
     29 C22         0.0363   -4.0863   -3.8064 C.2       1 <0>         0.5831
     30 O4          0.0304   -4.2084   -5.0154 O.2       1 <0>        -0.4640
     31 C23        -0.0093   -1.1024   -4.8913 C.ar      1 <0>        -0.0435
     32 C24         1.0740   -0.4278   -5.4542 C.ar      1 <0>        -0.0881
     33 C25         1.0559   -0.0949   -6.7928 C.ar      1 <0>        -0.1174
     34 C26        -0.0339   -0.4286   -7.5777 C.ar      1 <0>        -0.1014
     35 C27        -1.1115   -1.0974   -7.0266 C.ar      1 <0>        -0.1109
     36 C28        -1.1033   -1.4416   -5.6887 C.ar      1 <0>        -0.0005
     37 Cl1        -2.4535   -2.2875   -4.9995 Cl        1 <0>        -0.0621
     38 H1          1.0048    1.8381    0.0023 H         1 <0>         0.0647
     39 H2         -0.5450    1.8219   -0.8730 H         1 <0>         0.0768
     40 H3         -0.5280    1.8123    0.9069 H         1 <0>         0.0766
     41 H4         -0.0195    0.5759   -2.7873 H         1 <0>         0.1366
     42 H5          0.0219    0.5341    2.8134 H         1 <0>         0.1066
     43 H6          0.0654   -4.1967    1.3739 H         1 <0>         0.1288
     44 H7         -2.2492   -0.4624    5.0383 H         1 <0>         0.0820
     45 H8         -2.0668   -2.1875    5.4369 H         1 <0>         0.1238
     46 H9         -1.2482   -1.5788    7.6970 H         1 <0>         0.0959
     47 H10        -1.4306    0.1464    7.2984 H         1 <0>         0.0824
     48 H11        -3.8589   -0.1954    6.9305 H         1 <0>         0.1244
     49 H12        -3.6765   -1.9206    7.3290 H         1 <0>         0.1332
     50 H13        -2.0180    0.9670    9.2726 H         1 <0>         0.1367
     51 H14        -3.5016    1.4528    8.3894 H         1 <0>         0.1315
     52 H15        -3.1938    0.7810   11.3687 H         1 <0>         0.0974
     53 H16        -4.0111    2.1946   10.6249 H         1 <0>         0.1134
     54 H17        -5.3511   -0.1357   11.3890 H         1 <0>         0.1028
     55 H18        -5.9259    0.9572   10.0937 H         1 <0>         0.1006
     56 H19        -5.4937   -0.6565    8.5279 H         1 <0>         0.1285
     57 H20        -4.9555   -1.7607    9.8251 H         1 <0>         0.1314
     58 H21         0.0653   -6.0354   -3.1513 H         1 <0>         0.4268
     59 H22         1.9253   -0.1663   -4.8431 H         1 <0>         0.1339
     60 H23         1.8942    0.4278   -7.2293 H         1 <0>         0.1311
     61 H24        -0.0430   -0.1652   -8.6250 H         1 <0>         0.1321
     62 H25        -1.9592   -1.3550   -7.6442 H         1 <0>         0.1344
     63 H26        -2.8120   -1.1945    9.4891 H         1 <0>         0.4271
@<TRIPOS>BOND
     1    1    2 1
     2    1   38 1
     3    1   39 1
     4    1   40 1
     5    2   10 1
     6    2    3 1
     7    3    8 ar
     8    3    4 ar
     9    4    5 ar
    10    4   41 1
    11    5    6 ar
    12    5   31 1
    13    6   29 1
    14    6    7 ar
    15    7    8 ar
    16    7   26 1
    17    8    9 1
    18    9   14 ar
    19    9   10 ar
    20   10   11 ar
    21   11   12 ar
    22   11   42 1
    23   12   13 ar
    24   12   16 1
    25   13   14 ar
    26   13   15 1
    27   14   43 1
    28   16   17 2
    29   16   18 1
    30   18   19 1
    31   18   44 1
    32   18   45 1
    33   19   20 1
    34   19   46 1
    35   19   47 1
    36   20   21 1
    37   20   48 1
    38   20   49 1
    39   21   25 1
    40   21   22 1
    41   21   63 1
    42   22   23 1
    43   22   50 1
    44   22   51 1
    45   23   24 1
    46   23   52 1
    47   23   53 1
    48   24   25 1
    49   24   54 1
    50   24   55 1
    51   25   56 1
    52   25   57 1
    53   26   27 2
    54   26   28 am
    55   28   29 am
    56   28   58 1
    57   29   30 2
    58   31   36 ar
    59   31   32 ar
    60   32   33 ar
    61   32   59 1
    62   33   34 ar
    63   33   60 1
    64   34   35 ar
    65   34   61 1
    66   35   36 ar
    67   35   62 1
    68   36   37 1
@<TRIPOS>MOLECULE
CHEMBL472542
   47    51     0     0     0
SMALL
USER_CHARGES

@<TRIPOS>ATOM
      1 C1         -0.0166    1.3753    0.0096 C.ar      1 <0>        -0.1155
      2 C2          1.1702    2.0869    0.0021 C.ar      1 <0>        -0.0957
      3 C3          2.3823    1.4213   -0.0135 C.ar      1 <0>        -0.1090
      4 C4          2.4147    0.0403   -0.0213 C.ar      1 <0>        -0.0003
      5 C5          1.2208   -0.6823   -0.0133 C.ar      1 <0>        -0.0547
      6 C6          0.0021   -0.0041    0.0020 C.ar      1 <0>        -0.0858
      7 C7          1.2476   -2.1633   -0.0220 C.ar      1 <0>         0.0582
      8 C8          0.7443   -2.8623   -1.1176 C.ar      1 <0>        -0.1059
      9 C9          0.7641   -4.2503   -1.1370 C.ar      1 <0>         0.1741
     10 C10         1.2978   -4.9603   -0.0406 C.ar      1 <0>        -0.0289
     11 C11         1.1711   -6.3898   -0.3691 C.ar      1 <0>        -0.0950
     12 C12         1.5141   -7.5614    0.3052 C.ar      1 <0>        -0.0737
     13 C13         1.2616   -8.7878   -0.2800 C.ar      1 <0>         0.0781
     14 C14         0.6683   -8.8531   -1.5363 C.ar      1 <0>        -0.0949
     15 C15         0.3265   -7.7006   -2.2102 C.ar      1 <0>        -0.1254
     16 C16         0.5722   -6.4571   -1.6364 C.ar      1 <0>         0.1413
     17 N1          0.3368   -5.1656   -2.0786 N.pl3     1 <0>        -0.4978
     18 C17        -0.2788   -4.8200   -3.3623 C.3       1 <0>         0.1279
     19 C18         0.8102   -4.6727   -4.4269 C.3       1 <0>        -0.1670
     20 C19         0.1770   -4.3171   -5.7474 C.2       1 <0>         0.5237
     21 O1         -1.0268   -4.1937   -5.8290 O.2       1 <0>        -0.5412
     22 N2          0.9484   -4.1363   -6.8377 N.am      1 <0>        -0.8525
     23 O2          1.5943   -9.9330    0.3737 O.3       1 <0>        -0.4933
     24 C20         1.8044   -4.2673    1.0595 C.ar      1 <0>        -0.0800
     25 C21         1.7840   -2.8596    1.0679 C.ar      1 <0>        -0.1512
     26 C22         2.3884   -2.4533    2.3485 C.2       1 <0>         0.5792
     27 O3          2.5449   -1.3094    2.7274 O.2       1 <0>        -0.4478
     28 N3          2.7379   -3.5599    3.0287 N.am      1 <0>        -0.6807
     29 C23         2.4184   -4.6701    2.3393 C.2       1 <0>         0.5792
     30 O4          2.6139   -5.8124    2.7038 O.2       1 <0>        -0.4564
     31 Cl1         3.9368   -0.7943   -0.0415 Cl        1 <0>        -0.0617
     32 H1         -0.9598    1.9012    0.0260 H         1 <0>         0.1336
     33 H2          1.1498    3.1667    0.0081 H         1 <0>         0.1347
     34 H3          3.3052    1.9822   -0.0201 H         1 <0>         0.1368
     35 H4         -0.9252   -0.5577    0.0083 H         1 <0>         0.1350
     36 H5          0.3356   -2.3202   -1.9575 H         1 <0>         0.1452
     37 H6          1.9754   -7.5105    1.2804 H         1 <0>         0.1476
     38 H7          0.4742   -9.8149   -1.9876 H         1 <0>         0.1396
     39 H8         -0.1334   -7.7627   -3.1854 H         1 <0>         0.1326
     40 H9         -0.9710   -5.6085   -3.6574 H         1 <0>         0.1040
     41 H10        -0.8204   -3.8791   -3.2640 H         1 <0>         0.1023
     42 H11         1.5024   -3.8841   -4.1319 H         1 <0>         0.1041
     43 H12         1.3518   -5.6135   -4.5253 H         1 <0>         0.1049
     44 H13         1.9111   -4.2350   -6.7724 H         1 <0>         0.4041
     45 H14         0.5408   -3.9075   -7.6876 H         1 <0>         0.4059
     46 H15         0.8923  -10.2803    0.9408 H         1 <0>         0.3906
     47 H16         3.1568   -3.5579    3.9036 H         1 <0>         0.4315
@<TRIPOS>BOND
     1    1    6 ar
     2    1    2 ar
     3    1   32 1
     4    2    3 ar
     5    2   33 1
     6    3    4 ar
     7    3   34 1
     8    4    5 ar
     9    4   31 1
    10    5    6 ar
    11    5    7 1
    12    6   35 1
    13    7   25 ar
    14    7    8 ar
    15    8    9 ar
    16    8   36 1
    17    9   17 1
    18    9   10 ar
    19   10   11 1
    20   10   24 ar
    21   11   16 ar
    22   11   12 ar
    23   12   13 ar
    24   12   37 1
    25   13   14 ar
    26   13   23 1
    27   14   15 ar
    28   14   38 1
    29   15   16 ar
    30   15   39 1
    31   16   17 1
    32   17   18 1
    33   18   19 1
    34   18   40 1
    35   18   41 1
    36   19   20 1
    37   19   42 1
    38   19   43 1
    39   20   21 2
    40   20   22 am
    41   22   44 1
    42   22   45 1
    43   23   46 1
    44   24   29 1
    45   24   25 ar
    46   25   26 1
    47   26   27 2
    48   26   28 am
    49   28   29 am
    50   28   47 1
    51   29   30 2
@<TRIPOS>MOLECULE
CHEMBL474714
   58    63     0     0     0
SMALL
USER_CHARGES

@<TRIPOS>ATOM
      1 C1         -0.0178    1.4608    0.0101 C.3       1 <0>         0.0782
      2 N1          0.0021   -0.0041    0.0020 N.pl3     1 <0>        -0.5014
      3 C2          0.0074   -0.7870   -1.1362 C.ar      1 <0>         0.1720
      4 C3         -0.0032   -0.4626   -2.4855 C.ar      1 <0>        -0.1032
      5 C4          0.0054   -1.4647   -3.4544 C.ar      1 <0>         0.0572
      6 C5          0.0255   -2.8112   -3.0715 C.ar      1 <0>        -0.1493
      7 C6          0.0370   -3.1513   -1.7049 C.ar      1 <0>        -0.0814
      8 C7          0.0277   -2.1416   -0.7404 C.ar      1 <0>        -0.0264
      9 C8          0.0346   -2.1464    0.7305 C.ar      1 <0>        -0.1021
     10 C9          0.0242   -0.8016    1.1348 C.ar      1 <0>         0.1627
     11 C10         0.0327   -0.4963    2.4905 C.ar      1 <0>        -0.1469
     12 C11         0.0556   -1.5136    3.4310 C.ar      1 <0>        -0.0683
     13 C12         0.0698   -2.8514    3.0261 C.ar      1 <0>         0.0959
     14 C13         0.0524   -3.1671    1.6837 C.ar      1 <0>        -0.0521
     15 O1          0.0923   -3.8433    3.9574 O.3       1 <0>        -0.4811
     16 S1          0.0675   -1.1184    5.1481 S.3       1 <0>        -0.0604
     17 C14         0.0437    0.6951    5.1812 C.3       1 <0>        -0.1210
     18 C15         0.0518    1.1789    6.6327 C.3       1 <0>        -0.1204
     19 C16         0.0317    2.7085    6.6606 C.3       1 <0>         0.1126
     20 N2          0.0395    3.1717    8.0504 N.pl3     1 <0>        -0.4507
     21 C17        -1.0642    3.4025    8.8170 C.2       1 <0>        -0.0175
     22 C18        -0.6539    3.8167   10.0329 C.2       1 <0>        -0.1997
     23 C19         0.7547    3.8426   10.0165 C.2       1 <0>        -0.1998
     24 C20         1.1516    3.4376    8.7930 C.2       1 <0>        -0.0170
     25 C21         0.0571   -4.6247   -1.6551 C.2       1 <0>         0.5795
     26 O2          0.0713   -5.3003   -0.6452 O.2       1 <0>        -0.4563
     27 N3          0.0572   -5.0957   -2.9152 N.am      1 <0>        -0.6802
     28 C22         0.0391   -4.0879   -3.8061 C.2       1 <0>         0.5792
     29 O3          0.0351   -4.2103   -5.0151 O.2       1 <0>        -0.4471
     30 C23        -0.0071   -1.1045   -4.8910 C.ar      1 <0>        -0.0550
     31 C24         1.0764   -0.4298   -5.4534 C.ar      1 <0>        -0.0860
     32 C25         1.0592   -0.0973   -6.7921 C.ar      1 <0>        -0.1158
     33 C26        -0.0299   -0.4316   -7.5777 C.ar      1 <0>        -0.0954
     34 C27        -1.1078   -1.1005   -7.0271 C.ar      1 <0>        -0.1089
     35 C28        -1.1007   -1.4438   -5.6891 C.ar      1 <0>         0.0000
     36 Cl1        -2.4512   -2.2899   -5.0006 Cl        1 <0>        -0.0612
     37 H1          1.0048    1.8381    0.0023 H         1 <0>         0.0752
     38 H2         -0.5450    1.8219   -0.8730 H         1 <0>         0.0881
     39 H3         -0.5280    1.8123    0.9069 H         1 <0>         0.0851
     40 H4         -0.0188    0.5743   -2.7872 H         1 <0>         0.1456
     41 H5          0.0218    0.5349    2.8113 H         1 <0>         0.1313
     42 H6          0.0650   -4.2006    1.3703 H         1 <0>         0.1544
     43 H7         -0.7845   -4.1420    4.2351 H         1 <0>         0.3905
     44 H8          0.9236    1.0795    4.6652 H         1 <0>         0.0927
     45 H9         -0.8561    1.0559    4.6830 H         1 <0>         0.0917
     46 H10        -0.8280    0.7945    7.1487 H         1 <0>         0.0835
     47 H11         0.9517    0.8182    7.1309 H         1 <0>         0.0841
     48 H12         0.9116    3.0929    6.1446 H         1 <0>         0.0917
     49 H13        -0.8681    3.0692    6.1624 H         1 <0>         0.0914
     50 H14        -2.0901    3.2760    8.5041 H         1 <0>         0.1597
     51 H15        -1.2884    4.0802   10.8662 H         1 <0>         0.1351
     52 H16         1.3984    4.1296   10.8348 H         1 <0>         0.1352
     53 H17         2.1740    3.3424    8.4583 H         1 <0>         0.1599
     54 H18         0.0684   -6.0367   -3.1502 H         1 <0>         0.4319
     55 H19         1.9271   -0.1678   -4.8418 H         1 <0>         0.1346
     56 H20         1.8977    0.4254   -7.2282 H         1 <0>         0.1336
     57 H21        -0.0383   -0.1686   -8.6251 H         1 <0>         0.1349
     58 H22        -1.9551   -1.3583   -7.6453 H         1 <0>         0.1371
@<TRIPOS>BOND
     1    1    2 1
     2    1   37 1
     3    1   38 1
     4    1   39 1
     5    2   10 1
     6    2    3 1
     7    3    8 ar
     8    3    4 ar
     9    4    5 ar
    10    4   40 1
    11    5    6 ar
    12    5   30 1
    13    6   28 1
    14    6    7 ar
    15    7    8 ar
    16    7   25 1
    17    8    9 1
    18    9   14 ar
    19    9   10 ar
    20   10   11 ar
    21   11   12 ar
    22   11   41 1
    23   12   13 ar
    24   12   16 1
    25   13   14 ar
    26   13   15 1
    27   14   42 1
    28   15   43 1
    29   16   17 1
    30   17   18 1
    31   17   44 1
    32   17   45 1
    33   18   19 1
    34   18   46 1
    35   18   47 1
    36   19   20 1
    37   19   48 1
    38   19   49 1
    39   20   24 1
    40   20   21 1
    41   21   22 2
    42   21   50 1
    43   22   23 1
    44   22   51 1
    45   23   24 2
    46   23   52 1
    47   24   53 1
    48   25   26 2
    49   25   27 am
    50   27   28 am
    51   27   54 1
    52   28   29 2
    53   30   35 ar
    54   30   31 ar
    55   31   32 ar
    56   31   55 1
    57   32   33 ar
    58   32   56 1
    59   33   34 ar
    60   33   57 1
    61   34   35 ar
    62   34   58 1
    63   35   36 1
@<TRIPOS>MOLECULE
CHEMBL271715
   67    72     0     0     0
SMALL
USER_CHARGES

@<TRIPOS>ATOM
      1 C1         -0.0166    1.3753    0.0096 C.ar      1 <0>        -0.1156
      2 C2          1.1702    2.0869    0.0021 C.ar      1 <0>        -0.0956
      3 C3          2.3823    1.4213   -0.0135 C.ar      1 <0>        -0.1088
      4 C4          2.4148    0.0403   -0.0213 C.ar      1 <0>        -0.0004
      5 C5          1.2208   -0.6824   -0.0133 C.ar      1 <0>        -0.0542
      6 C6          0.0021   -0.0041    0.0020 C.ar      1 <0>        -0.0861
      7 C7          1.2477   -2.1632   -0.0220 C.ar      1 <0>         0.0540
      8 C8          0.7442   -2.8624   -1.1180 C.ar      1 <0>        -0.1012
      9 C9          0.7642   -4.2497   -1.1380 C.ar      1 <0>         0.1668
     10 C10         1.2980   -4.9604   -0.0415 C.ar      1 <0>        -0.0152
     11 C11         1.1726   -6.3892   -0.3703 C.ar      1 <0>        -0.1315
     12 C12         1.5169   -7.5611    0.3061 C.ar      1 <0>        -0.0339
     13 C13         1.2670   -8.7871   -0.2757 C.ar      1 <0>         0.0543
     14 C14         0.6720   -8.8554   -1.5365 C.ar      1 <0>         0.1602
     15 C15         0.3287   -7.6993   -2.2126 C.ar      1 <0>        -0.2284
     16 C16         0.5743   -6.4567   -1.6382 C.ar      1 <0>         0.1842
     17 N1          0.3379   -5.1653   -2.0804 N.pl3     1 <0>        -0.4953
     18 C17        -0.2774   -4.8198   -3.3643 C.3       1 <0>         0.1132
     19 C18         0.8120   -4.6714   -4.4283 C.3       1 <0>         0.0575
     20 O1          0.2119   -4.3345   -5.6807 O.3       1 <0>        -0.5682
     21 O2          0.4287  -10.0665   -2.1035 O.3       1 <0>        -0.2941
     22 C19        -0.1824  -10.0671   -3.3953 C.3       1 <0>         0.0571
     23 C20        -0.3759  -11.5096   -3.8673 C.3       1 <0>        -0.1163
     24 C21        -1.0301  -11.5102   -5.2503 C.3       1 <0>         0.0593
     25 N2         -1.2159  -12.8951   -5.7035 N.3       1 <0>        -0.5361
     26 C22         0.0788  -13.5515   -5.9361 C.3       1 <0>         0.0125
     27 C23        -0.1595  -15.0066   -6.3482 C.3       1 <0>         0.0624
     28 O3         -0.9981  -15.0376   -7.5063 O.3       1 <0>        -0.3852
     29 C24        -2.2676  -14.4075   -7.3149 C.3       1 <0>         0.0627
     30 C25        -2.0506  -12.9464   -6.9127 C.3       1 <0>         0.0174
     31 O4          1.6016   -9.9312    0.3805 O.3       1 <0>        -0.4789
     32 C26         1.8041   -4.2676    1.0594 C.ar      1 <0>        -0.0867
     33 C27         1.7839   -2.8593    1.0677 C.ar      1 <0>        -0.1462
     34 C28         2.3884   -2.4533    2.3483 C.2       1 <0>         0.5791
     35 O5          2.5449   -1.3095    2.7274 O.2       1 <0>        -0.4473
     36 N3          2.7377   -3.5602    3.0281 N.am      1 <0>        -0.6804
     37 C29         2.4175   -4.6703    2.3387 C.2       1 <0>         0.5801
     38 O6          2.6140   -5.8127    2.7027 O.2       1 <0>        -0.4567
     39 Cl1         3.9369   -0.7942   -0.0415 Cl        1 <0>        -0.0614
     40 H1         -0.9598    1.9012    0.0260 H         1 <0>         0.1336
     41 H2          1.1498    3.1667    0.0081 H         1 <0>         0.1348
     42 H3          3.3052    1.9822   -0.0201 H         1 <0>         0.1369
     43 H4         -0.9252   -0.5577    0.0083 H         1 <0>         0.1347
     44 H5          0.3351   -2.3202   -1.9577 H         1 <0>         0.1452
     45 H6          1.9776   -7.5082    1.2814 H         1 <0>         0.1565
     46 H7         -0.1306   -7.7611   -3.1881 H         1 <0>         0.1372
     47 H8         -0.9688   -5.6089   -3.6599 H         1 <0>         0.1006
     48 H9         -0.8197   -3.8795   -3.2660 H         1 <0>         0.1021
     49 H10         1.5035   -3.8823   -4.1328 H         1 <0>         0.0555
     50 H11         1.3544   -5.6117   -4.5267 H         1 <0>         0.0537
     51 H12         0.8450   -4.2244   -6.4033 H         1 <0>         0.3909
     52 H13        -1.1509   -9.5701   -3.3393 H         1 <0>         0.0663
     53 H14         0.4579   -9.5369   -4.1003 H         1 <0>         0.0635
     54 H15         0.5926  -12.0065   -3.9233 H         1 <0>         0.0770
     55 H16        -1.0161  -12.0398   -3.1622 H         1 <0>         0.0863
     56 H17        -1.9986  -11.0132   -5.1943 H         1 <0>         0.0805
     57 H18        -0.3899  -10.9800   -5.9554 H         1 <0>         0.0391
     58 H19         0.6132  -13.0311   -6.7309 H         1 <0>         0.0443
     59 H20         0.6702  -13.5246   -5.0208 H         1 <0>         0.0908
     60 H21         0.7947  -15.4811   -6.5769 H         1 <0>         0.0997
     61 H22        -0.6460  -15.5410   -5.5322 H         1 <0>         0.0615
     62 H23        -2.8379  -14.4487   -8.2429 H         1 <0>         0.0997
     63 H24        -2.8154  -14.9244   -6.5270 H         1 <0>         0.0613
     64 H25        -3.0136  -12.4777   -6.7103 H         1 <0>         0.0879
     65 H26        -1.5502  -12.4162   -7.7230 H         1 <0>         0.0444
     66 H27         0.9000  -10.2786    0.9481 H         1 <0>         0.3875
     67 H28         3.1569   -3.5585    3.9029 H         1 <0>         0.4317
@<TRIPOS>BOND
     1    1    6 ar
     2    1    2 ar
     3    1   40 1
     4    2    3 ar
     5    2   41 1
     6    3    4 ar
     7    3   42 1
     8    4    5 ar
     9    4   39 1
    10    5    6 ar
    11    5    7 1
    12    6   43 1
    13    7   33 ar
    14    7    8 ar
    15    8    9 ar
    16    8   44 1
    17    9   17 1
    18    9   10 ar
    19   10   11 1
    20   10   32 ar
    21   11   16 ar
    22   11   12 ar
    23   12   13 ar
    24   12   45 1
    25   13   14 ar
    26   13   31 1
    27   14   15 ar
    28   14   21 1
    29   15   16 ar
    30   15   46 1
    31   16   17 1
    32   17   18 1
    33   18   19 1
    34   18   47 1
    35   18   48 1
    36   19   20 1
    37   19   49 1
    38   19   50 1
    39   20   51 1
    40   21   22 1
    41   22   23 1
    42   22   52 1
    43   22   53 1
    44   23   24 1
    45   23   54 1
    46   23   55 1
    47   24   25 1
    48   24   56 1
    49   24   57 1
    50   25   30 1
    51   25   26 1
    52   26   27 1
    53   26   58 1
    54   26   59 1
    55   27   28 1
    56   27   60 1
    57   27   61 1
    58   28   29 1
    59   29   30 1
    60   29   62 1
    61   29   63 1
    62   30   64 1
    63   30   65 1
    64   31   66 1
    65   32   37 1
    66   32   33 ar
    67   33   34 1
    68   34   35 2
    69   34   36 am
    70   36   37 am
    71   36   67 1
    72   37   38 2
@<TRIPOS>MOLECULE
CHEMBL271715
   68    73     0     0     0
SMALL
USER_CHARGES

@<TRIPOS>ATOM
      1 C1         -0.0166    1.3753    0.0096 C.ar      1 <0>        -0.1148
      2 C2          1.1702    2.0869    0.0021 C.ar      1 <0>        -0.0924
      3 C3          2.3823    1.4213   -0.0135 C.ar      1 <0>        -0.1077
      4 C4          2.4148    0.0403   -0.0213 C.ar      1 <0>        -0.0001
      5 C5          1.2208   -0.6824   -0.0133 C.ar      1 <0>        -0.0605
      6 C6          0.0021   -0.0041    0.0020 C.ar      1 <0>        -0.0855
      7 C7          1.2477   -2.1632   -0.0220 C.ar      1 <0>         0.0605
      8 C8          0.7442   -2.8624   -1.1180 C.ar      1 <0>        -0.0998
      9 C9          0.7642   -4.2497   -1.1380 C.ar      1 <0>         0.1654
     10 C10         1.2980   -4.9604   -0.0415 C.ar      1 <0>        -0.0216
     11 C11         1.1726   -6.3892   -0.3703 C.ar      1 <0>        -0.1204
     12 C12         1.5169   -7.5611    0.3061 C.ar      1 <0>        -0.0308
     13 C13         1.2670   -8.7871   -0.2757 C.ar      1 <0>         0.0567
     14 C14         0.6720   -8.8554   -1.5365 C.ar      1 <0>         0.1480
     15 C15         0.3287   -7.6993   -2.2126 C.ar      1 <0>        -0.2252
     16 C16         0.5743   -6.4567   -1.6382 C.ar      1 <0>         0.1831
     17 N1          0.3379   -5.1653   -2.0804 N.pl3     1 <0>        -0.4955
     18 C17        -0.2774   -4.8198   -3.3643 C.3       1 <0>         0.1139
     19 C18         0.8120   -4.6714   -4.4283 C.3       1 <0>         0.0574
     20 O1          0.2119   -4.3345   -5.6807 O.3       1 <0>        -0.5689
     21 O2          0.4287  -10.0665   -2.1035 O.3       1 <0>        -0.2954
     22 C19        -0.1824  -10.0671   -3.3953 C.3       1 <0>         0.0586
     23 C20        -0.3759  -11.5096   -3.8673 C.3       1 <0>        -0.1509
     24 C21        -1.0301  -11.5102   -5.2503 C.3       1 <0>        -0.0055
     25 N2         -1.2159  -12.8951   -5.7035 N.4       1 <0>        -0.3842
     26 C22         0.0962  -13.5282   -5.8951 C.3       1 <0>        -0.0503
     27 C23        -0.1001  -14.9711   -6.3670 C.3       1 <0>         0.0363
     28 O3         -0.8652  -14.9720   -7.5754 O.3       1 <0>        -0.3561
     29 C24        -2.1437  -14.3440   -7.4456 C.3       1 <0>         0.0356
     30 C25        -1.9512  -12.8999   -6.9757 C.3       1 <0>        -0.0433
     31 O4          1.6016   -9.9312    0.3805 O.3       1 <0>        -0.4793
     32 C26         1.8041   -4.2676    1.0594 C.ar      1 <0>        -0.0838
     33 C27         1.7839   -2.8593    1.0677 C.ar      1 <0>        -0.1409
     34 C28         2.3884   -2.4533    2.3483 C.2       1 <0>         0.5767
     35 O5          2.5449   -1.3095    2.7274 O.2       1 <0>        -0.4403
     36 N3          2.7377   -3.5602    3.0281 N.am      1 <0>        -0.6792
     37 C29         2.4175   -4.6703    2.3387 C.2       1 <0>         0.5807
     38 O6          2.6140   -5.8127    2.7027 O.2       1 <0>        -0.4580
     39 Cl1         3.9369   -0.7942   -0.0415 Cl        1 <0>        -0.0616
     40 H1         -0.9598    1.9012    0.0260 H         1 <0>         0.1349
     41 H2          1.1498    3.1667    0.0081 H         1 <0>         0.1367
     42 H3          3.3052    1.9822   -0.0201 H         1 <0>         0.1384
     43 H4         -0.9252   -0.5577    0.0083 H         1 <0>         0.1344
     44 H5          0.3351   -2.3202   -1.9577 H         1 <0>         0.1469
     45 H6          1.9776   -7.5082    1.2814 H         1 <0>         0.1598
     46 H7         -0.1306   -7.7611   -3.1881 H         1 <0>         0.1346
     47 H8         -0.9688   -5.6089   -3.6599 H         1 <0>         0.0979
     48 H9         -0.8197   -3.8795   -3.2660 H         1 <0>         0.1041
     49 H10         1.5035   -3.8823   -4.1328 H         1 <0>         0.0578
     50 H11         1.3544   -5.6117   -4.5267 H         1 <0>         0.0513
     51 H12         0.8450   -4.2244   -6.4033 H         1 <0>         0.3923
     52 H13        -1.1509   -9.5701   -3.3393 H         1 <0>         0.0746
     53 H14         0.4579   -9.5369   -4.1003 H         1 <0>         0.0740
     54 H15         0.5926  -12.0065   -3.9233 H         1 <0>         0.1009
     55 H16        -1.0161  -12.0398   -3.1622 H         1 <0>         0.1012
     56 H17        -1.9986  -11.0132   -5.1943 H         1 <0>         0.1373
     57 H18        -0.3899  -10.9800   -5.9554 H         1 <0>         0.1350
     58 H19         0.6613  -12.9741   -6.6446 H         1 <0>         0.1405
     59 H20         0.6425  -13.5252   -4.9518 H         1 <0>         0.1451
     60 H21         0.8717  -15.4292   -6.5511 H         1 <0>         0.1431
     61 H22        -0.6301  -15.5359   -5.6001 H         1 <0>         0.0823
     62 H23        -2.6510  -14.3483   -8.4103 H         1 <0>         0.1430
     63 H24        -2.7437  -14.8874   -6.7157 H         1 <0>         0.0821
     64 H25        -2.9249  -12.4306   -6.8347 H         1 <0>         0.1438
     65 H26        -1.3854  -12.3461   -7.7248 H         1 <0>         0.1399
     66 H27         0.9000  -10.2786    0.9481 H         1 <0>         0.3885
     67 H28         3.1569   -3.5585    3.9029 H         1 <0>         0.4337
     68 H29        -1.7394  -13.4086   -5.0104 H         1 <0>         0.4248
@<TRIPOS>BOND
     1    1    6 ar
     2    1    2 ar
     3    1   40 1
     4    2    3 ar
     5    2   41 1
     6    3    4 ar
     7    3   42 1
     8    4    5 ar
     9    4   39 1
    10    5    6 ar
    11    5    7 1
    12    6   43 1
    13    7   33 ar
    14    7    8 ar
    15    8    9 ar
    16    8   44 1
    17    9   17 1
    18    9   10 ar
    19   10   11 1
    20   10   32 ar
    21   11   16 ar
    22   11   12 ar
    23   12   13 ar
    24   12   45 1
    25   13   14 ar
    26   13   31 1
    27   14   15 ar
    28   14   21 1
    29   15   16 ar
    30   15   46 1
    31   16   17 1
    32   17   18 1
    33   18   19 1
    34   18   47 1
    35   18   48 1
    36   19   20 1
    37   19   49 1
    38   19   50 1
    39   20   51 1
    40   21   22 1
    41   22   23 1
    42   22   52 1
    43   22   53 1
    44   23   24 1
    45   23   54 1
    46   23   55 1
    47   24   25 1
    48   24   56 1
    49   24   57 1
    50   25   30 1
    51   25   26 1
    52   25   68 1
    53   26   27 1
    54   26   58 1
    55   26   59 1
    56   27   28 1
    57   27   60 1
    58   27   61 1
    59   28   29 1
    60   29   30 1
    61   29   62 1
    62   29   63 1
    63   30   64 1
    64   30   65 1
    65   31   66 1
    66   32   37 1
    67   32   33 ar
    68   33   34 1
    69   34   35 2
    70   34   36 am
    71   36   37 am
    72   36   67 1
    73   37   38 2
@<TRIPOS>MOLECULE
CHEMBL411662
   47    51     0     0     0
SMALL
USER_CHARGES

@<TRIPOS>ATOM
      1 C1         -0.0166    1.3753    0.0096 C.ar      1 <0>        -0.1161
      2 C2          1.1702    2.0869    0.0021 C.ar      1 <0>        -0.0958
      3 C3          2.3823    1.4213   -0.0135 C.ar      1 <0>        -0.1087
      4 C4          2.4147    0.0403   -0.0213 C.ar      1 <0>        -0.0001
      5 C5          1.2208   -0.6823   -0.0133 C.ar      1 <0>        -0.0542
      6 C6          0.0021   -0.0041    0.0020 C.ar      1 <0>        -0.0864
      7 C7          1.2476   -2.1633   -0.0220 C.ar      1 <0>         0.0578
      8 C8          0.7443   -2.8623   -1.1176 C.ar      1 <0>        -0.1052
      9 C9          0.7641   -4.2503   -1.1370 C.ar      1 <0>         0.1750
     10 C10         1.2978   -4.9603   -0.0406 C.ar      1 <0>        -0.0294
     11 C11         1.1711   -6.3898   -0.3691 C.ar      1 <0>        -0.0956
     12 C12         1.5141   -7.5614    0.3052 C.ar      1 <0>        -0.0736
     13 C13         1.2616   -8.7878   -0.2800 C.ar      1 <0>         0.0778
     14 C14         0.6683   -8.8531   -1.5363 C.ar      1 <0>        -0.0952
     15 C15         0.3265   -7.7006   -2.2102 C.ar      1 <0>        -0.1250
     16 C16         0.5722   -6.4571   -1.6364 C.ar      1 <0>         0.1422
     17 N1          0.3368   -5.1656   -2.0786 N.pl3     1 <0>        -0.4964
     18 C17        -0.2788   -4.8200   -3.3623 C.3       1 <0>         0.1156
     19 C18         0.8102   -4.6727   -4.4269 C.3       1 <0>        -0.1440
     20 C19         0.1673   -4.3117   -5.7675 C.3       1 <0>         0.0801
     21 O1          1.1844   -4.1741   -6.7618 O.3       1 <0>        -0.5720
     22 O2          1.5943   -9.9330    0.3737 O.3       1 <0>        -0.4929
     23 C20         1.8044   -4.2673    1.0595 C.ar      1 <0>        -0.0801
     24 C21         1.7840   -2.8596    1.0679 C.ar      1 <0>        -0.1517
     25 C22         2.3884   -2.4533    2.3485 C.2       1 <0>         0.5794
     26 O3          2.5449   -1.3094    2.7274 O.2       1 <0>        -0.4480
     27 N2          2.7379   -3.5599    3.0287 N.am      1 <0>        -0.6806
     28 C23         2.4184   -4.6701    2.3393 C.2       1 <0>         0.5793
     29 O4          2.6139   -5.8124    2.7038 O.2       1 <0>        -0.4564
     30 Cl1         3.9368   -0.7943   -0.0415 Cl        1 <0>        -0.0605
     31 H1         -0.9598    1.9012    0.0260 H         1 <0>         0.1333
     32 H2          1.1498    3.1667    0.0081 H         1 <0>         0.1347
     33 H3          3.3052    1.9822   -0.0201 H         1 <0>         0.1370
     34 H4         -0.9252   -0.5577    0.0083 H         1 <0>         0.1344
     35 H5          0.3356   -2.3202   -1.9575 H         1 <0>         0.1447
     36 H6          1.9754   -7.5105    1.2804 H         1 <0>         0.1477
     37 H7          0.4742   -9.8149   -1.9876 H         1 <0>         0.1396
     38 H8         -0.1334   -7.7627   -3.1854 H         1 <0>         0.1321
     39 H9         -0.9710   -5.6085   -3.6574 H         1 <0>         0.0968
     40 H10        -0.8204   -3.8791   -3.2640 H         1 <0>         0.0951
     41 H11         1.5024   -3.8841   -4.1319 H         1 <0>         0.0793
     42 H12         1.3518   -5.6135   -4.5253 H         1 <0>         0.0800
     43 H13        -0.5249   -5.1003   -6.0626 H         1 <0>         0.0497
     44 H14        -0.3743   -3.3709   -5.6692 H         1 <0>         0.0497
     45 H15         0.8484   -3.9453   -7.6392 H         1 <0>         0.3850
     46 H16         0.8923  -10.2803    0.9408 H         1 <0>         0.3902
     47 H17         3.1568   -3.5579    3.9036 H         1 <0>         0.4315
@<TRIPOS>BOND
     1    1    6 ar
     2    1    2 ar
     3    1   31 1
     4    2    3 ar
     5    2   32 1
     6    3    4 ar
     7    3   33 1
     8    4    5 ar
     9    4   30 1
    10    5    6 ar
    11    5    7 1
    12    6   34 1
    13    7   24 ar
    14    7    8 ar
    15    8    9 ar
    16    8   35 1
    17    9   17 1
    18    9   10 ar
    19   10   11 1
    20   10   23 ar
    21   11   16 ar
    22   11   12 ar
    23   12   13 ar
    24   12   36 1
    25   13   14 ar
    26   13   22 1
    27   14   15 ar
    28   14   37 1
    29   15   16 ar
    30   15   38 1
    31   16   17 1
    32   17   18 1
    33   18   19 1
    34   18   39 1
    35   18   40 1
    36   19   20 1
    37   19   41 1
    38   19   42 1
    39   20   21 1
    40   20   43 1
    41   20   44 1
    42   21   45 1
    43   22   46 1
    44   23   28 1
    45   23   24 ar
    46   24   25 1
    47   25   26 2
    48   25   27 am
    49   27   28 am
    50   27   47 1
    51   28   29 2
@<TRIPOS>MOLECULE
CHEMBL270021
   67    72     0     0     0
SMALL
USER_CHARGES

@<TRIPOS>ATOM
      1 C1         -0.0166    1.3753    0.0096 C.ar      1 <0>        -0.1148
      2 C2          1.1702    2.0869    0.0021 C.ar      1 <0>        -0.0925
      3 C3          2.3823    1.4213   -0.0135 C.ar      1 <0>        -0.1077
      4 C4          2.4148    0.0403   -0.0213 C.ar      1 <0>        -0.0001
      5 C5          1.2208   -0.6824   -0.0133 C.ar      1 <0>        -0.0603
      6 C6          0.0021   -0.0041    0.0020 C.ar      1 <0>        -0.0855
      7 C7          1.2477   -2.1632   -0.0220 C.ar      1 <0>         0.0603
      8 C8          0.7442   -2.8624   -1.1180 C.ar      1 <0>        -0.0998
      9 C9          0.7642   -4.2497   -1.1380 C.ar      1 <0>         0.1654
     10 C10         1.2980   -4.9604   -0.0415 C.ar      1 <0>        -0.0214
     11 C11         1.1726   -6.3892   -0.3703 C.ar      1 <0>        -0.1208
     12 C12         1.5169   -7.5611    0.3061 C.ar      1 <0>        -0.0309
     13 C13         1.2670   -8.7871   -0.2757 C.ar      1 <0>         0.0566
     14 C14         0.6720   -8.8554   -1.5365 C.ar      1 <0>         0.1485
     15 C15         0.3287   -7.6993   -2.2126 C.ar      1 <0>        -0.2254
     16 C16         0.5743   -6.4567   -1.6382 C.ar      1 <0>         0.1831
     17 N1          0.3379   -5.1653   -2.0804 N.pl3     1 <0>        -0.4956
     18 C17        -0.2774   -4.8198   -3.3643 C.3       1 <0>         0.1140
     19 C18         0.8120   -4.6714   -4.4283 C.3       1 <0>         0.0573
     20 O1          0.2119   -4.3345   -5.6807 O.3       1 <0>        -0.5689
     21 O2          0.4287  -10.0665   -2.1035 O.3       1 <0>        -0.2953
     22 C19        -0.1824  -10.0671   -3.3953 C.3       1 <0>         0.0583
     23 C20        -0.3759  -11.5096   -3.8673 C.3       1 <0>        -0.1493
     24 C21        -1.0301  -11.5102   -5.2503 C.3       1 <0>        -0.0014
     25 N2         -1.2159  -12.8951   -5.7035 N.4       1 <0>        -0.3937
     26 C22        -2.2462  -13.5715   -4.8745 C.3       1 <0>        -0.0090
     27 C23        -2.7203  -14.7366   -5.7791 C.3       1 <0>        -0.1458
     28 C24        -2.7041  -14.1069   -7.1909 C.3       1 <0>        -0.1456
     29 C25        -1.7365  -12.9133   -7.0878 C.3       1 <0>        -0.0082
     30 O3          1.6016   -9.9312    0.3805 O.3       1 <0>        -0.4792
     31 C26         1.8041   -4.2676    1.0594 C.ar      1 <0>        -0.0839
     32 C27         1.7839   -2.8593    1.0677 C.ar      1 <0>        -0.1410
     33 C28         2.3884   -2.4533    2.3483 C.2       1 <0>         0.5768
     34 O4          2.5449   -1.3095    2.7274 O.2       1 <0>        -0.4405
     35 N3          2.7377   -3.5602    3.0281 N.am      1 <0>        -0.6792
     36 C29         2.4175   -4.6703    2.3387 C.2       1 <0>         0.5807
     37 O5          2.6140   -5.8127    2.7027 O.2       1 <0>        -0.4579
     38 Cl1         3.9369   -0.7942   -0.0415 Cl        1 <0>        -0.0616
     39 H1         -0.9598    1.9012    0.0260 H         1 <0>         0.1349
     40 H2          1.1498    3.1667    0.0081 H         1 <0>         0.1366
     41 H3          3.3052    1.9822   -0.0201 H         1 <0>         0.1384
     42 H4         -0.9252   -0.5577    0.0083 H         1 <0>         0.1344
     43 H5          0.3351   -2.3202   -1.9577 H         1 <0>         0.1468
     44 H6          1.9776   -7.5082    1.2814 H         1 <0>         0.1597
     45 H7         -0.1306   -7.7611   -3.1881 H         1 <0>         0.1347
     46 H8         -0.9688   -5.6089   -3.6599 H         1 <0>         0.0979
     47 H9         -0.8197   -3.8795   -3.2660 H         1 <0>         0.1040
     48 H10         1.5035   -3.8823   -4.1328 H         1 <0>         0.0578
     49 H11         1.3544   -5.6117   -4.5267 H         1 <0>         0.0515
     50 H12         0.8450   -4.2244   -6.4033 H         1 <0>         0.3923
     51 H13        -1.1509   -9.5701   -3.3393 H         1 <0>         0.0736
     52 H14         0.4579   -9.5369   -4.1003 H         1 <0>         0.0736
     53 H15         0.5926  -12.0065   -3.9233 H         1 <0>         0.1004
     54 H16        -1.0161  -12.0398   -3.1622 H         1 <0>         0.0994
     55 H17        -1.9986  -11.0132   -5.1943 H         1 <0>         0.1329
     56 H18        -0.3899  -10.9800   -5.9554 H         1 <0>         0.1335
     57 H19        -1.8080  -13.9539   -3.9526 H         1 <0>         0.1367
     58 H20        -3.0712  -12.8931   -4.6570 H         1 <0>         0.1344
     59 H21        -2.0265  -15.5754   -5.7229 H         1 <0>         0.0988
     60 H22        -3.7285  -15.0498   -5.5080 H         1 <0>         0.1173
     61 H23        -2.3391  -14.8277   -7.9225 H         1 <0>         0.1059
     62 H24        -3.7019  -13.7626   -7.4630 H         1 <0>         0.1042
     63 H25        -2.2683  -11.9851   -7.2967 H         1 <0>         0.1310
     64 H26        -0.9143  -13.0399   -7.7921 H         1 <0>         0.1332
     65 H27         0.9000  -10.2786    0.9481 H         1 <0>         0.3883
     66 H28         3.1569   -3.5585    3.9029 H         1 <0>         0.4337
     67 H29        -0.3426  -13.3981   -5.6536 H         1 <0>         0.4287
@<TRIPOS>BOND
     1    1    6 ar
     2    1    2 ar
     3    1   39 1
     4    2    3 ar
     5    2   40 1
     6    3    4 ar
     7    3   41 1
     8    4    5 ar
     9    4   38 1
    10    5    6 ar
    11    5    7 1
    12    6   42 1
    13    7   32 ar
    14    7    8 ar
    15    8    9 ar
    16    8   43 1
    17    9   17 1
    18    9   10 ar
    19   10   11 1
    20   10   31 ar
    21   11   16 ar
    22   11   12 ar
    23   12   13 ar
    24   12   44 1
    25   13   14 ar
    26   13   30 1
    27   14   15 ar
    28   14   21 1
    29   15   16 ar
    30   15   45 1
    31   16   17 1
    32   17   18 1
    33   18   19 1
    34   18   46 1
    35   18   47 1
    36   19   20 1
    37   19   48 1
    38   19   49 1
    39   20   50 1
    40   21   22 1
    41   22   23 1
    42   22   51 1
    43   22   52 1
    44   23   24 1
    45   23   53 1
    46   23   54 1
    47   24   25 1
    48   24   55 1
    49   24   56 1
    50   25   29 1
    51   25   26 1
    52   25   67 1
    53   26   27 1
    54   26   57 1
    55   26   58 1
    56   27   28 1
    57   27   59 1
    58   27   60 1
    59   28   29 1
    60   28   61 1
    61   28   62 1
    62   29   63 1
    63   29   64 1
    64   30   65 1
    65   31   36 1
    66   31   32 ar
    67   32   33 1
    68   33   34 2
    69   33   35 am
    70   35   36 am
    71   35   66 1
    72   36   37 2
@<TRIPOS>MOLECULE
CHEMBL441695
   36    40     0     0     0
SMALL
USER_CHARGES

@<TRIPOS>ATOM
      1 C1         -0.0167    1.3792    0.0096 C.ar      1 <0>        -0.1030
      2 C2          1.1685    2.0928    0.0021 C.ar      1 <0>        -0.1231
      3 C3          2.3774    1.4277   -0.0129 C.ar      1 <0>        -0.0943
      4 C4          2.4028    0.0333   -0.0206 C.ar      1 <0>        -0.0740
      5 C5          1.2047   -0.6805   -0.0130 C.ar      1 <0>        -0.0686
      6 C6          0.0021   -0.0041    0.0020 C.ar      1 <0>        -0.1187
      7 C7          3.6973   -0.6868   -0.0373 C.ar      1 <0>         0.0681
      8 C8          4.6765   -0.3379   -0.9670 C.ar      1 <0>        -0.0817
      9 C9          5.8921   -1.0038   -0.9927 C.ar      1 <0>         0.1180
     10 C10         6.1402   -2.0417   -0.0717 C.ar      1 <0>        -0.0507
     11 C11         7.4999   -2.5225   -0.3718 C.ar      1 <0>        -0.1140
     12 C12         8.3152   -3.5133    0.1690 C.ar      1 <0>        -0.0760
     13 C13         9.5783   -3.7221   -0.3545 C.ar      1 <0>         0.0924
     14 C14        10.0291   -2.9446   -1.4153 C.ar      1 <0>        -0.0964
     15 C15         9.2267   -1.9619   -1.9552 C.ar      1 <0>        -0.0959
     16 C16         7.9546   -1.7385   -1.4421 C.ar      1 <0>         0.0812
     17 O1          6.9830   -0.8603   -1.7765 O.3       1 <0>        -0.1867
     18 O2         10.3797   -4.6880    0.1688 O.3       1 <0>        -0.4904
     19 C17         5.1682   -2.3985    0.8615 C.ar      1 <0>        -0.0825
     20 C18         3.9383   -1.7123    0.8835 C.ar      1 <0>        -0.1502
     21 C19         3.1550   -2.3192    1.9743 C.2       1 <0>         0.5802
     22 O3          2.0302   -1.9982    2.3030 O.2       1 <0>        -0.4454
     23 N1          3.8929   -3.2886    2.5447 N.am      1 <0>        -0.6780
     24 C20         5.0885   -3.4036    1.9388 C.2       1 <0>         0.5796
     25 O4          5.9625   -4.1924    2.2388 O.2       1 <0>        -0.4529
     26 H1         -0.9604    1.9042    0.0260 H         1 <0>         0.1255
     27 H2          1.1476    3.1726    0.0077 H         1 <0>         0.1277
     28 H3          3.3020    1.9858   -0.0191 H         1 <0>         0.1271
     29 H4          1.2180   -1.7604   -0.0193 H         1 <0>         0.1220
     30 H5         -0.9264   -0.5557    0.0079 H         1 <0>         0.1270
     31 H6          4.4861    0.4571   -1.6728 H         1 <0>         0.1590
     32 H7          7.9632   -4.1156    0.9935 H         1 <0>         0.1504
     33 H8         11.0165   -3.1115   -1.8197 H         1 <0>         0.1495
     34 H9          9.5878   -1.3639   -2.7788 H         1 <0>         0.1463
     35 H10        10.2780   -5.5534   -0.2507 H         1 <0>         0.3946
     36 H11         3.5986   -3.8376    3.2882 H         1 <0>         0.4339
@<TRIPOS>BOND
     1    1    6 ar
     2    1    2 ar
     3    1   26 1
     4    2    3 ar
     5    2   27 1
     6    3    4 ar
     7    3   28 1
     8    4    5 ar
     9    4    7 1
    10    5    6 ar
    11    5   29 1
    12    6   30 1
    13    7   20 ar
    14    7    8 ar
    15    8    9 ar
    16    8   31 1
    17    9   17 1
    18    9   10 ar
    19   10   11 1
    20   10   19 ar
    21   11   16 ar
    22   11   12 ar
    23   12   13 ar
    24   12   32 1
    25   13   14 ar
    26   13   18 1
    27   14   15 ar
    28   14   33 1
    29   15   16 ar
    30   15   34 1
    31   16   17 1
    32   18   35 1
    33   19   24 1
    34   19   20 ar
    35   20   21 1
    36   21   22 2
    37   21   23 am
    38   23   24 am
    39   23   36 1
    40   24   25 2
@<TRIPOS>MOLECULE
CHEMBL271071
   60    65     0     0     0
SMALL
USER_CHARGES

@<TRIPOS>ATOM
      1 C1         -0.0166    1.3753    0.0096 C.ar      1 <0>        -0.1153
      2 C2          1.1702    2.0869    0.0021 C.ar      1 <0>        -0.0927
      3 C3          2.3823    1.4213   -0.0135 C.ar      1 <0>        -0.1077
      4 C4          2.4148    0.0403   -0.0213 C.ar      1 <0>        -0.0002
      5 C5          1.2208   -0.6824   -0.0133 C.ar      1 <0>        -0.0603
      6 C6          0.0021   -0.0041    0.0020 C.ar      1 <0>        -0.0857
      7 C7          1.2477   -2.1632   -0.0220 C.ar      1 <0>         0.0593
      8 C8          0.7442   -2.8624   -1.1180 C.ar      1 <0>        -0.0997
      9 C9          0.7642   -4.2497   -1.1380 C.ar      1 <0>         0.1657
     10 C10         1.2980   -4.9604   -0.0415 C.ar      1 <0>        -0.0237
     11 C11         1.1726   -6.3892   -0.3703 C.ar      1 <0>        -0.1227
     12 C12         1.5169   -7.5611    0.3061 C.ar      1 <0>        -0.0315
     13 C13         1.2670   -8.7871   -0.2757 C.ar      1 <0>         0.0561
     14 C14         0.6720   -8.8554   -1.5365 C.ar      1 <0>         0.1479
     15 C15         0.3287   -7.6993   -2.2126 C.ar      1 <0>        -0.2266
     16 C16         0.5743   -6.4567   -1.6382 C.ar      1 <0>         0.1823
     17 N1          0.3379   -5.1653   -2.0804 N.pl3     1 <0>        -0.6066
     18 H1         -0.0695   -4.9366   -2.9305 H         1 <0>         0.4255
     19 O1          0.4287  -10.0665   -2.1035 O.3       1 <0>        -0.2956
     20 C17        -0.1824  -10.0671   -3.3953 C.3       1 <0>         0.0582
     21 C18        -0.3759  -11.5096   -3.8673 C.3       1 <0>        -0.1496
     22 C19        -1.0301  -11.5102   -5.2503 C.3       1 <0>        -0.0012
     23 N2         -1.2159  -12.8951   -5.7035 N.4       1 <0>        -0.3938
     24 C20        -2.2462  -13.5715   -4.8745 C.3       1 <0>        -0.0090
     25 C21        -2.7203  -14.7366   -5.7791 C.3       1 <0>        -0.1459
     26 C22        -2.7041  -14.1069   -7.1909 C.3       1 <0>        -0.1456
     27 C23        -1.7365  -12.9133   -7.0878 C.3       1 <0>        -0.0081
     28 O2          1.6016   -9.9312    0.3805 O.3       1 <0>        -0.4793
     29 C24         1.8041   -4.2676    1.0594 C.ar      1 <0>        -0.0845
     30 C25         1.7839   -2.8593    1.0677 C.ar      1 <0>        -0.1411
     31 C26         2.3884   -2.4533    2.3483 C.2       1 <0>         0.5766
     32 O3          2.5449   -1.3095    2.7274 O.2       1 <0>        -0.4408
     33 N3          2.7377   -3.5602    3.0281 N.am      1 <0>        -0.6793
     34 C27         2.4175   -4.6703    2.3387 C.2       1 <0>         0.5803
     35 O4          2.6140   -5.8127    2.7027 O.2       1 <0>        -0.4582
     36 Cl1         3.9369   -0.7942   -0.0415 Cl        1 <0>        -0.0610
     37 H2         -0.9598    1.9012    0.0260 H         1 <0>         0.1347
     38 H3          1.1498    3.1667    0.0081 H         1 <0>         0.1365
     39 H4          3.3052    1.9822   -0.0201 H         1 <0>         0.1384
     40 H5         -0.9252   -0.5577    0.0083 H         1 <0>         0.1345
     41 H6          0.3351   -2.3202   -1.9577 H         1 <0>         0.1486
     42 H7          1.9776   -7.5082    1.2814 H         1 <0>         0.1593
     43 H8         -0.1306   -7.7611   -3.1881 H         1 <0>         0.1358
     44 H9         -1.1509   -9.5701   -3.3393 H         1 <0>         0.0736
     45 H10         0.4579   -9.5369   -4.1003 H         1 <0>         0.0743
     46 H11         0.5926  -12.0065   -3.9233 H         1 <0>         0.1005
     47 H12        -1.0161  -12.0398   -3.1622 H         1 <0>         0.0992
     48 H13        -1.9986  -11.0132   -5.1943 H         1 <0>         0.1327
     49 H14        -0.3899  -10.9800   -5.9554 H         1 <0>         0.1335
     50 H15        -1.8080  -13.9539   -3.9526 H         1 <0>         0.1368
     51 H16        -3.0712  -12.8931   -4.6570 H         1 <0>         0.1343
     52 H17        -2.0265  -15.5754   -5.7229 H         1 <0>         0.0989
     53 H18        -3.7285  -15.0498   -5.5080 H         1 <0>         0.1173
     54 H19        -2.3391  -14.8277   -7.9225 H         1 <0>         0.1059
     55 H20        -3.7019  -13.7626   -7.4630 H         1 <0>         0.1041
     56 H21        -2.2683  -11.9851   -7.2967 H         1 <0>         0.1308
     57 H22        -0.9143  -13.0399   -7.7921 H         1 <0>         0.1332
     58 H23         0.9000  -10.2786    0.9481 H         1 <0>         0.3882
     59 H24         3.1569   -3.5585    3.9029 H         1 <0>         0.4336
     60 H25        -0.3426  -13.3981   -5.6536 H         1 <0>         0.4289
@<TRIPOS>BOND
     1    1    6 ar
     2    1    2 ar
     3    1   37 1
     4    2    3 ar
     5    2   38 1
     6    3    4 ar
     7    3   39 1
     8    4    5 ar
     9    4   36 1
    10    5    6 ar
    11    5    7 1
    12    6   40 1
    13    7   30 ar
    14    7    8 ar
    15    8    9 ar
    16    8   41 1
    17    9   17 1
    18    9   10 ar
    19   10   11 1
    20   10   29 ar
    21   11   16 ar
    22   11   12 ar
    23   12   13 ar
    24   12   42 1
    25   13   14 ar
    26   13   28 1
    27   14   15 ar
    28   14   19 1
    29   15   16 ar
    30   15   43 1
    31   16   17 1
    32   17   18 1
    33   19   20 1
    34   20   21 1
    35   20   44 1
    36   20   45 1
    37   21   22 1
    38   21   46 1
    39   21   47 1
    40   22   23 1
    41   22   48 1
    42   22   49 1
    43   23   27 1
    44   23   24 1
    45   23   60 1
    46   24   25 1
    47   24   50 1
    48   24   51 1
    49   25   26 1
    50   25   52 1
    51   25   53 1
    52   26   27 1
    53   26   54 1
    54   26   55 1
    55   27   56 1
    56   27   57 1
    57   28   58 1
    58   29   34 1
    59   29   30 ar
    60   30   31 1
    61   31   32 2
    62   31   33 am
    63   33   34 am
    64   33   59 1
    65   34   35 2
@<TRIPOS>MOLECULE
CHEMBL402093
   64    69     0     0     0
SMALL
USER_CHARGES

@<TRIPOS>ATOM
      1 C1          0.4758    1.4075   -0.0636 C.3       1 <0>         0.0726
      2 N1          0.4753   -0.0574   -0.0798 N.pl3     1 <0>        -0.4983
      3 C2          0.5675   -0.8334   -1.2184 C.ar      1 <0>         0.1822
      4 C3          0.6771   -0.5006   -2.5622 C.ar      1 <0>        -0.1045
      5 C4          0.7542   -1.4968   -3.5333 C.ar      1 <0>         0.0728
      6 C5          0.7219   -2.8459   -3.1589 C.ar      1 <0>        -0.1467
      7 C6          0.6114   -3.1934   -1.7995 C.ar      1 <0>        -0.0692
      8 C7          0.5342   -2.1898   -0.8326 C.ar      1 <0>        -0.0543
      9 C8          0.4142   -2.2029    0.6346 C.ar      1 <0>        -0.0352
     10 C9          0.3882   -0.8610    1.0453 C.ar      1 <0>         0.1198
     11 C10         0.2842   -0.5645    2.4003 C.ar      1 <0>        -0.0235
     12 C11         0.2118   -1.5818    3.3278 C.ar      1 <0>        -0.6733
     13 C12         0.2417   -2.9115    2.9224 C.ar      1 <0>         0.1704
     14 C13         0.3356   -3.2254    1.5792 C.ar      1 <0>        -0.0926
     15 O1          0.1704   -3.9051    3.8483 O.3       1 <0>        -0.4963
     16 S1          0.0809   -1.1937    5.0415 S.o2      1 <0>         2.7090
     17 O2          0.1157    0.2234    5.1408 O.2       1 <0>        -0.9494
     18 O3         -0.9966   -1.9669    5.5518 O.2       1 <0>        -0.9320
     19 N2          1.4551   -1.7536    5.7767 N.pl3     1 <0>        -1.1078
     20 C14         2.7576   -1.1809    5.4281 C.3       1 <0>         0.0946
     21 C15         3.7910   -1.5857    6.4813 C.3       1 <0>        -0.0132
     22 N3          5.0972   -1.0114    6.1317 N.4       1 <0>        -0.3935
     23 C16         5.0643    0.4658    6.2835 C.3       1 <0>        -0.0134
     24 C17         6.5596    0.8391    6.4430 C.3       1 <0>        -0.1450
     25 C18         7.1188   -0.3274    7.2895 C.3       1 <0>        -0.1454
     26 C19         6.1331   -1.4905    7.0724 C.3       1 <0>        -0.0075
     27 C20         0.6051   -4.6684   -1.7581 C.2       1 <0>         0.5803
     28 O4          0.5224   -5.3497   -0.7557 O.2       1 <0>        -0.4576
     29 N4          0.7058   -5.1319   -3.0170 N.am      1 <0>        -0.6785
     30 C21         0.7791   -4.1186   -3.8988 C.2       1 <0>         0.5765
     31 O5          0.8756   -4.2339   -5.1046 O.2       1 <0>        -0.4367
     32 C22         0.8699   -1.1284   -4.9633 C.ar      1 <0>        -0.0651
     33 C23         2.0072   -0.4669   -5.4263 C.ar      1 <0>        -0.0846
     34 C24         2.1093   -0.1264   -6.7592 C.ar      1 <0>        -0.1150
     35 C25         1.0865   -0.4395   -7.6372 C.ar      1 <0>        -0.0903
     36 C26        -0.0441   -1.0952   -7.1854 C.ar      1 <0>        -0.1069
     37 C27        -0.1560   -1.4469   -5.8542 C.ar      1 <0>         0.0008
     38 Cl1        -1.5726   -2.2765   -5.2895 Cl        1 <0>        -0.0600
     39 H1          1.5005    1.7696    0.0193 H         1 <0>         0.0782
     40 H2          0.0319    1.7812   -0.9863 H         1 <0>         0.0927
     41 H3         -0.1047    1.7616    0.7883 H         1 <0>         0.0911
     42 H4          0.7025    0.5382   -2.8567 H         1 <0>         0.1507
     43 H5          0.2605    0.4648    2.7264 H         1 <0>         0.1536
     44 H6          0.3601   -4.2581    1.2639 H         1 <0>         0.1590
     45 H7         -0.7231   -4.2459    3.9914 H         1 <0>         0.4129
     46 H8          1.3975   -2.4608    6.4381 H         1 <0>         0.4289
     47 H9          3.0687   -1.5531    4.4520 H         1 <0>         0.0874
     48 H10         2.6795   -0.0942    5.3946 H         1 <0>         0.1004
     49 H11         3.4800   -1.2135    7.4574 H         1 <0>         0.1408
     50 H12         3.8692   -2.6724    6.5148 H         1 <0>         0.1406
     51 H13         4.6435    0.9346    5.3941 H         1 <0>         0.1376
     52 H14         4.5003    0.7487    7.1723 H         1 <0>         0.1381
     53 H15         7.0522    0.8815    5.4716 H         1 <0>         0.0986
     54 H16         6.6664    1.7858    6.9725 H         1 <0>         0.1181
     55 H17         8.1137   -0.6047    6.9411 H         1 <0>         0.1059
     56 H18         7.1498   -0.0494    8.3430 H         1 <0>         0.1049
     57 H19         5.6734   -1.7695    8.0205 H         1 <0>         0.1328
     58 H20         6.6563   -2.3456    6.6445 H         1 <0>         0.1341
     59 H21         0.7236   -6.0716   -3.2569 H         1 <0>         0.4349
     60 H22         2.8063   -0.2214   -4.7424 H         1 <0>         0.1341
     61 H23         2.9895    0.3862   -7.1183 H         1 <0>         0.1355
     62 H24         1.1715   -0.1702   -8.6796 H         1 <0>         0.1376
     63 H25        -0.8389   -1.3369   -7.8755 H         1 <0>         0.1396
     64 H26         5.3448   -1.2595    5.1856 H         1 <0>         0.4287
@<TRIPOS>BOND
     1    1    2 1
     2    1   39 1
     3    1   40 1
     4    1   41 1
     5    2   10 1
     6    2    3 1
     7    3    8 ar
     8    3    4 ar
     9    4    5 ar
    10    4   42 1
    11    5    6 ar
    12    5   32 1
    13    6   30 1
    14    6    7 ar
    15    7    8 ar
    16    7   27 1
    17    8    9 1
    18    9   14 ar
    19    9   10 ar
    20   10   11 ar
    21   11   12 ar
    22   11   43 1
    23   12   13 ar
    24   12   16 1
    25   13   14 ar
    26   13   15 1
    27   14   44 1
    28   15   45 1
    29   16   17 2
    30   16   18 2
    31   16   19 1
    32   19   20 1
    33   19   46 1
    34   20   21 1
    35   20   47 1
    36   20   48 1
    37   21   22 1
    38   21   49 1
    39   21   50 1
    40   22   26 1
    41   22   23 1
    42   22   64 1
    43   23   24 1
    44   23   51 1
    45   23   52 1
    46   24   25 1
    47   24   53 1
    48   24   54 1
    49   25   26 1
    50   25   55 1
    51   25   56 1
    52   26   57 1
    53   26   58 1
    54   27   28 2
    55   27   29 am
    56   29   30 am
    57   29   59 1
    58   30   31 2
    59   32   37 ar
    60   32   33 ar
    61   33   34 ar
    62   33   60 1
    63   34   35 ar
    64   34   61 1
    65   35   36 ar
    66   35   62 1
    67   36   37 ar
    68   36   63 1
    69   37   38 1
@<TRIPOS>MOLECULE
CHEMBL257857
   65    70     0     0     0
SMALL
USER_CHARGES

@<TRIPOS>ATOM
      1 C1         -0.0178    1.4608    0.0101 C.3       1 <0>         0.0720
      2 N1          0.0021   -0.0041    0.0020 N.pl3     1 <0>        -0.4972
      3 C2          0.0074   -0.7864   -1.1360 C.ar      1 <0>         0.1822
      4 C3         -0.0040   -0.4611   -2.4860 C.ar      1 <0>        -0.1036
      5 C4          0.0040   -1.4627   -3.4546 C.ar      1 <0>         0.0716
      6 C5          0.0241   -2.8096   -3.0714 C.ar      1 <0>        -0.1469
      7 C6          0.0362   -3.1494   -1.7056 C.ar      1 <0>        -0.0696
      8 C7          0.0277   -2.1405   -0.7412 C.ar      1 <0>        -0.0526
      9 C8          0.0345   -2.1453    0.7309 C.ar      1 <0>        -0.0380
     10 C9          0.0242   -0.8012    1.1349 C.ar      1 <0>         0.1234
     11 C10         0.0328   -0.4970    2.4921 C.ar      1 <0>        -0.0205
     12 C11         0.0556   -1.5089    3.4280 C.ar      1 <0>        -0.6512
     13 C12         0.0703   -2.8408    3.0289 C.ar      1 <0>         0.1557
     14 C13         0.0528   -3.1624    1.6844 C.ar      1 <0>        -0.0854
     15 O1          0.0937   -3.8290    3.9629 O.3       1 <0>        -0.4788
     16 S1          0.0669   -1.1112    5.1445 S.o2      1 <0>         2.5077
     17 O2          1.1506   -1.8566    5.6823 O.2       1 <0>        -0.9016
     18 O3          0.0727    0.3092    5.1875 O.2       1 <0>        -0.9271
     19 C14        -1.5073   -1.7492    5.7812 C.3       1 <0>        -0.6251
     20 C15        -1.6074   -1.4567    7.2797 C.3       1 <0>        -0.1425
     21 C16        -2.9351   -1.9948    7.8167 C.3       1 <0>         0.0029
     22 N2         -3.0312   -1.7139    9.2554 N.4       1 <0>        -0.3975
     23 C17        -3.1754   -0.2533    9.4837 C.3       1 <0>        -0.0129
     24 C18        -3.8127   -0.1761   10.8938 C.3       1 <0>        -0.1456
     25 C19        -4.7858   -1.3773   10.8996 C.3       1 <0>        -0.1457
     26 C20        -4.2528   -2.3320    9.8152 C.3       1 <0>        -0.0085
     27 C21         0.0554   -4.6240   -1.6557 C.2       1 <0>         0.5807
     28 O4          0.0694   -5.2996   -0.6461 O.2       1 <0>        -0.4578
     29 N3          0.0542   -5.0945   -2.9160 N.am      1 <0>        -0.6784
     30 C22         0.0363   -4.0863   -3.8064 C.2       1 <0>         0.5771
     31 O5          0.0304   -4.2084   -5.0154 O.2       1 <0>        -0.4376
     32 C23        -0.0093   -1.1024   -4.8913 C.ar      1 <0>        -0.0639
     33 C24         1.0740   -0.4278   -5.4542 C.ar      1 <0>        -0.0840
     34 C25         1.0559   -0.0949   -6.7928 C.ar      1 <0>        -0.1141
     35 C26        -0.0339   -0.4286   -7.5777 C.ar      1 <0>        -0.0909
     36 C27        -1.1115   -1.0974   -7.0266 C.ar      1 <0>        -0.1077
     37 C28        -1.1033   -1.4416   -5.6887 C.ar      1 <0>         0.0010
     38 Cl1        -2.4535   -2.2875   -4.9995 Cl        1 <0>        -0.0626
     39 H1          1.0048    1.8381    0.0023 H         1 <0>         0.0810
     40 H2         -0.5450    1.8219   -0.8730 H         1 <0>         0.0924
     41 H3         -0.5280    1.8123    0.9069 H         1 <0>         0.0906
     42 H4         -0.0195    0.5759   -2.7873 H         1 <0>         0.1509
     43 H5          0.0219    0.5341    2.8134 H         1 <0>         0.1566
     44 H6          0.0654   -4.1967    1.3739 H         1 <0>         0.1602
     45 H7         -0.7828   -4.1272    4.2421 H         1 <0>         0.3873
     46 H8         -2.3330   -1.2644    5.2605 H         1 <0>         0.1489
     47 H9         -1.5560   -2.8256    5.6171 H         1 <0>         0.1450
     48 H10        -0.7816   -1.9414    7.8004 H         1 <0>         0.1070
     49 H11        -1.5586   -0.3802    7.4438 H         1 <0>         0.1043
     50 H12        -3.7609   -1.5100    7.2960 H         1 <0>         0.1352
     51 H13        -2.9839   -3.0712    7.6526 H         1 <0>         0.1368
     52 H14        -2.2011    0.2354    9.4745 H         1 <0>         0.1377
     53 H15        -3.8360    0.1892    8.7381 H         1 <0>         0.1360
     54 H16        -3.0533   -0.2911   11.6671 H         1 <0>         0.0994
     55 H17        -4.3555    0.7606   11.0209 H         1 <0>         0.1176
     56 H18        -4.7759   -1.8674   11.8732 H         1 <0>         0.1060
     57 H19        -5.7947   -1.0481   10.6511 H         1 <0>         0.1041
     58 H20        -4.9991   -2.4563    9.0305 H         1 <0>         0.1312
     59 H21        -4.0107   -3.2983   10.2576 H         1 <0>         0.1338
     60 H22         0.0653   -6.0354   -3.1513 H         1 <0>         0.4345
     61 H23         1.9253   -0.1663   -4.8431 H         1 <0>         0.1354
     62 H24         1.8942    0.4278   -7.2293 H         1 <0>         0.1358
     63 H25        -0.0430   -0.1652   -8.6250 H         1 <0>         0.1373
     64 H26        -1.9592   -1.3550   -7.6442 H         1 <0>         0.1389
     65 H27        -2.2142   -2.0629    9.7338 H         1 <0>         0.4292
@<TRIPOS>BOND
     1    1    2 1
     2    1   39 1
     3    1   40 1
     4    1   41 1
     5    2   10 1
     6    2    3 1
     7    3    8 ar
     8    3    4 ar
     9    4    5 ar
    10    4   42 1
    11    5    6 ar
    12    5   32 1
    13    6   30 1
    14    6    7 ar
    15    7    8 ar
    16    7   27 1
    17    8    9 1
    18    9   14 ar
    19    9   10 ar
    20   10   11 ar
    21   11   12 ar
    22   11   43 1
    23   12   13 ar
    24   12   16 1
    25   13   14 ar
    26   13   15 1
    27   14   44 1
    28   15   45 1
    29   16   17 2
    30   16   18 2
    31   16   19 1
    32   19   20 1
    33   19   46 1
    34   19   47 1
    35   20   21 1
    36   20   48 1
    37   20   49 1
    38   21   22 1
    39   21   50 1
    40   21   51 1
    41   22   26 1
    42   22   23 1
    43   22   65 1
    44   23   24 1
    45   23   52 1
    46   23   53 1
    47   24   25 1
    48   24   54 1
    49   24   55 1
    50   25   26 1
    51   25   56 1
    52   25   57 1
    53   26   58 1
    54   26   59 1
    55   27   28 2
    56   27   29 am
    57   29   30 am
    58   29   60 1
    59   30   31 2
    60   32   37 ar
    61   32   33 ar
    62   33   34 ar
    63   33   61 1
    64   34   35 ar
    65   34   62 1
    66   35   36 ar
    67   35   63 1
    68   36   37 ar
    69   36   64 1
    70   37   38 1
@<TRIPOS>MOLECULE
CHEMBL257857
   64    69     0     0     0
SMALL
USER_CHARGES

@<TRIPOS>ATOM
      1 C1         -0.0178    1.4608    0.0101 C.3       1 <0>         0.0850
      2 N1          0.0021   -0.0041    0.0020 N.pl3     1 <0>        -0.5025
      3 C2          0.0074   -0.7864   -1.1360 C.ar      1 <0>         0.1977
      4 C3         -0.0040   -0.4611   -2.4860 C.ar      1 <0>        -0.1320
      5 C4          0.0040   -1.4627   -3.4546 C.ar      1 <0>         0.0618
      6 C5          0.0241   -2.8096   -3.0714 C.ar      1 <0>        -0.1809
      7 C6          0.0362   -3.1494   -1.7056 C.ar      1 <0>        -0.0691
      8 C7          0.0277   -2.1405   -0.7412 C.ar      1 <0>        -0.0465
      9 C8          0.0345   -2.1453    0.7309 C.ar      1 <0>        -0.0186
     10 C9          0.0242   -0.8012    1.1349 C.ar      1 <0>         0.0051
     11 C10         0.0328   -0.4970    2.4921 C.ar      1 <0>         0.0046
     12 C11         0.0556   -1.5089    3.4280 C.ar      1 <0>        -0.7637
     13 C12         0.0703   -2.8408    3.0289 C.ar      1 <0>         0.3242
     14 C13         0.0528   -3.1624    1.6844 C.ar      1 <0>        -0.1861
     15 O1          0.0937   -3.8290    3.9629 O.3       1 <0>        -0.6931
     16 S1          0.0669   -1.1112    5.1445 S.o2      1 <0>         2.5271
     17 O2          1.1506   -1.8566    5.6823 O.2       1 <0>        -0.9275
     18 O3          0.0727    0.3092    5.1875 O.2       1 <0>        -0.9702
     19 C14        -1.5073   -1.7492    5.7812 C.3       1 <0>        -0.6245
     20 C15        -1.6074   -1.4567    7.2797 C.3       1 <0>        -0.1371
     21 C16        -2.9351   -1.9948    7.8167 C.3       1 <0>         0.0022
     22 N2         -3.0312   -1.7139    9.2554 N.4       1 <0>        -0.3965
     23 C17        -3.1754   -0.2533    9.4837 C.3       1 <0>        -0.0120
     24 C18        -3.8127   -0.1761   10.8938 C.3       1 <0>        -0.1449
     25 C19        -4.7858   -1.3773   10.8996 C.3       1 <0>        -0.1442
     26 C20        -4.2528   -2.3320    9.8152 C.3       1 <0>        -0.0091
     27 C21         0.0554   -4.6240   -1.6557 C.2       1 <0>         0.5732
     28 O4          0.0694   -5.2996   -0.6461 O.2       1 <0>        -0.4486
     29 N3          0.0542   -5.0945   -2.9160 N.am      1 <0>        -0.6834
     30 C22         0.0363   -4.0863   -3.8064 C.2       1 <0>         0.5830
     31 O5          0.0304   -4.2084   -5.0154 O.2       1 <0>        -0.4629
     32 C23        -0.0093   -1.1024   -4.8913 C.ar      1 <0>        -0.0447
     33 C24         1.0740   -0.4278   -5.4542 C.ar      1 <0>        -0.0876
     34 C25         1.0559   -0.0949   -6.7928 C.ar      1 <0>        -0.1173
     35 C26        -0.0339   -0.4286   -7.5777 C.ar      1 <0>        -0.1008
     36 C27        -1.1115   -1.0974   -7.0266 C.ar      1 <0>        -0.1108
     37 C28        -1.1033   -1.4416   -5.6887 C.ar      1 <0>        -0.0002
     38 Cl1        -2.4535   -2.2875   -4.9995 Cl        1 <0>        -0.0621
     39 H1          1.0048    1.8381    0.0023 H         1 <0>         0.0661
     40 H2         -0.5450    1.8219   -0.8730 H         1 <0>         0.0778
     41 H3         -0.5280    1.8123    0.9069 H         1 <0>         0.0815
     42 H4         -0.0195    0.5759   -2.7873 H         1 <0>         0.1386
     43 H5          0.0219    0.5341    2.8134 H         1 <0>         0.1237
     44 H6          0.0654   -4.1967    1.3739 H         1 <0>         0.1312
     45 H7         -2.3330   -1.2644    5.2605 H         1 <0>         0.1330
     46 H8         -1.5560   -2.8256    5.6171 H         1 <0>         0.1568
     47 H9         -0.7816   -1.9414    7.8004 H         1 <0>         0.1004
     48 H10        -1.5586   -0.3802    7.4438 H         1 <0>         0.0948
     49 H11        -3.7609   -1.5100    7.2960 H         1 <0>         0.1328
     50 H12        -2.9839   -3.0712    7.6526 H         1 <0>         0.1370
     51 H13        -2.2011    0.2354    9.4745 H         1 <0>         0.1374
     52 H14        -3.8360    0.1892    8.7381 H         1 <0>         0.1352
     53 H15        -3.0533   -0.2911   11.6671 H         1 <0>         0.0974
     54 H16        -4.3555    0.7606   11.0209 H         1 <0>         0.1148
     55 H17        -4.7759   -1.8674   11.8732 H         1 <0>         0.1030
     56 H18        -5.7947   -1.0481   10.6511 H         1 <0>         0.1018
     57 H19        -4.9991   -2.4563    9.0305 H         1 <0>         0.1305
     58 H20        -4.0107   -3.2983   10.2576 H         1 <0>         0.1319
     59 H21         0.0653   -6.0354   -3.1513 H         1 <0>         0.4271
     60 H22         1.9253   -0.1663   -4.8431 H         1 <0>         0.1343
     61 H23         1.8942    0.4278   -7.2293 H         1 <0>         0.1313
     62 H24        -0.0430   -0.1652   -8.6250 H         1 <0>         0.1322
     63 H25        -1.9592   -1.3550   -7.6442 H         1 <0>         0.1345
     64 H26        -2.2142   -2.0629    9.7338 H         1 <0>         0.4281
@<TRIPOS>BOND
     1    1    2 1
     2    1   39 1
     3    1   40 1
     4    1   41 1
     5    2   10 1
     6    2    3 1
     7    3    8 ar
     8    3    4 ar
     9    4    5 ar
    10    4   42 1
    11    5    6 ar
    12    5   32 1
    13    6   30 1
    14    6    7 ar
    15    7    8 ar
    16    7   27 1
    17    8    9 1
    18    9   14 ar
    19    9   10 ar
    20   10   11 ar
    21   11   12 ar
    22   11   43 1
    23   12   13 ar
    24   12   16 1
    25   13   14 ar
    26   13   15 1
    27   14   44 1
    28   16   17 2
    29   16   18 2
    30   16   19 1
    31   19   20 1
    32   19   45 1
    33   19   46 1
    34   20   21 1
    35   20   47 1
    36   20   48 1
    37   21   22 1
    38   21   49 1
    39   21   50 1
    40   22   26 1
    41   22   23 1
    42   22   64 1
    43   23   24 1
    44   23   51 1
    45   23   52 1
    46   24   25 1
    47   24   53 1
    48   24   54 1
    49   25   26 1
    50   25   55 1
    51   25   56 1
    52   26   57 1
    53   26   58 1
    54   27   28 2
    55   27   29 am
    56   29   30 am
    57   29   59 1
    58   30   31 2
    59   32   37 ar
    60   32   33 ar
    61   33   34 ar
    62   33   60 1
    63   34   35 ar
    64   34   61 1
    65   35   36 ar
    66   35   62 1
    67   36   37 ar
    68   36   63 1
    69   37   38 1
@<TRIPOS>MOLECULE
CHEMBL258067
   69    74     0     0     0
SMALL
USER_CHARGES

@<TRIPOS>ATOM
      1 C1         -0.0166    1.3753    0.0096 C.ar      1 <0>        -0.1155
      2 C2          1.1702    2.0869    0.0021 C.ar      1 <0>        -0.0955
      3 C3          2.3823    1.4213   -0.0135 C.ar      1 <0>        -0.1088
      4 C4          2.4147    0.0403   -0.0213 C.ar      1 <0>        -0.0003
      5 C5          1.2208   -0.6823   -0.0133 C.ar      1 <0>        -0.0547
      6 C6          0.0021   -0.0041    0.0020 C.ar      1 <0>        -0.0859
      7 C7          1.2476   -2.1633   -0.0220 C.ar      1 <0>         0.0576
      8 C8          0.7443   -2.8623   -1.1176 C.ar      1 <0>        -0.1049
      9 C9          0.7641   -4.2503   -1.1370 C.ar      1 <0>         0.1728
     10 C10         1.2978   -4.9603   -0.0406 C.ar      1 <0>        -0.0268
     11 C11         1.1711   -6.3898   -0.3691 C.ar      1 <0>        -0.0990
     12 C12         1.5141   -7.5614    0.3052 C.ar      1 <0>        -0.0708
     13 C13         1.2616   -8.7878   -0.2800 C.ar      1 <0>         0.0821
     14 C14         0.6683   -8.8531   -1.5363 C.ar      1 <0>        -0.0568
     15 C15         0.3265   -7.7006   -2.2102 C.ar      1 <0>        -0.1259
     16 C16         0.5722   -6.4571   -1.6364 C.ar      1 <0>         0.1454
     17 N1          0.3368   -5.1656   -2.0786 N.pl3     1 <0>        -0.4955
     18 C17        -0.2788   -4.8200   -3.3623 C.3       1 <0>         0.1132
     19 C18         0.8102   -4.6727   -4.4269 C.3       1 <0>         0.0580
     20 O1          0.2098   -4.3355   -5.6790 O.3       1 <0>        -0.5681
     21 C19         0.3975  -10.1952   -2.1661 C.3       1 <0>        -0.0726
     22 C20         1.6870  -10.7371   -2.7860 C.3       1 <0>        -0.1108
     23 C21         1.4121  -12.0997   -3.4254 C.3       1 <0>        -0.1142
     24 C22         2.7016  -12.6416   -4.0454 C.3       1 <0>         0.0546
     25 N2          2.4377  -13.9498   -4.6592 N.3       1 <0>        -0.5382
     26 C23         2.1000  -14.9523   -3.6383 C.3       1 <0>         0.0143
     27 C24         1.7751  -16.2819   -4.3243 C.3       1 <0>         0.0624
     28 O2          2.8877  -16.6820   -5.1288 O.3       1 <0>        -0.3858
     29 C25         3.2435  -15.7290   -6.1340 C.3       1 <0>         0.0631
     30 C26         3.5834  -14.3938   -5.4664 C.3       1 <0>         0.0165
     31 O3          1.5943   -9.9330    0.3737 O.3       1 <0>        -0.4878
     32 C27         1.8044   -4.2673    1.0595 C.ar      1 <0>        -0.0814
     33 C28         1.7840   -2.8596    1.0679 C.ar      1 <0>        -0.1503
     34 C29         2.3884   -2.4533    2.3485 C.2       1 <0>         0.5792
     35 O4          2.5449   -1.3094    2.7274 O.2       1 <0>        -0.4474
     36 N3          2.7379   -3.5599    3.0287 N.am      1 <0>        -0.6806
     37 C30         2.4184   -4.6701    2.3393 C.2       1 <0>         0.5795
     38 O5          2.6139   -5.8124    2.7038 O.2       1 <0>        -0.4565
     39 Cl1         3.9368   -0.7943   -0.0415 Cl        1 <0>        -0.0616
     40 H1         -0.9598    1.9012    0.0260 H         1 <0>         0.1337
     41 H2          1.1498    3.1667    0.0081 H         1 <0>         0.1349
     42 H3          3.3052    1.9822   -0.0201 H         1 <0>         0.1369
     43 H4         -0.9252   -0.5577    0.0083 H         1 <0>         0.1348
     44 H5          0.3356   -2.3202   -1.9575 H         1 <0>         0.1455
     45 H6          1.9754   -7.5105    1.2804 H         1 <0>         0.1480
     46 H7         -0.1334   -7.7627   -3.1854 H         1 <0>         0.1320
     47 H8         -0.9710   -5.6085   -3.6574 H         1 <0>         0.1023
     48 H9         -0.8204   -3.8791   -3.2640 H         1 <0>         0.1008
     49 H10         1.5024   -3.8841   -4.1319 H         1 <0>         0.0540
     50 H11         1.3518   -5.6135   -4.5253 H         1 <0>         0.0546
     51 H12         0.8426   -4.2262   -6.4019 H         1 <0>         0.3907
     52 H13         0.0412  -10.8887   -1.4044 H         1 <0>         0.0776
     53 H14        -0.3607  -10.0863   -2.9416 H         1 <0>         0.0740
     54 H15         2.0434  -10.0436   -3.5477 H         1 <0>         0.0620
     55 H16         2.4452  -10.8460   -2.0105 H         1 <0>         0.0712
     56 H17         1.0558  -12.7932   -2.6637 H         1 <0>         0.0637
     57 H18         0.6539  -11.9908   -4.2009 H         1 <0>         0.0710
     58 H19         3.0580  -11.9481   -4.8070 H         1 <0>         0.0752
     59 H20         3.4598  -12.7505   -3.2698 H         1 <0>         0.0361
     60 H21         2.9475  -15.0871   -2.9662 H         1 <0>         0.0431
     61 H22         1.2336  -14.6150   -3.0694 H         1 <0>         0.0893
     62 H23         1.5798  -17.0430   -3.5688 H         1 <0>         0.0983
     63 H24         0.8947  -16.1603   -4.9553 H         1 <0>         0.0599
     64 H25         4.1103  -16.0902   -6.6875 H         1 <0>         0.0985
     65 H26         2.4058  -15.5913   -6.8177 H         1 <0>         0.0601
     66 H27         3.7997  -13.6487   -6.2320 H         1 <0>         0.0862
     67 H28         4.4546  -14.5197   -4.8236 H         1 <0>         0.0431
     68 H29         0.8923  -10.2803    0.9408 H         1 <0>         0.3877
     69 H30         3.1568   -3.5579    3.9036 H         1 <0>         0.4315
@<TRIPOS>BOND
     1    1    6 ar
     2    1    2 ar
     3    1   40 1
     4    2    3 ar
     5    2   41 1
     6    3    4 ar
     7    3   42 1
     8    4    5 ar
     9    4   39 1
    10    5    6 ar
    11    5    7 1
    12    6   43 1
    13    7   33 ar
    14    7    8 ar
    15    8    9 ar
    16    8   44 1
    17    9   17 1
    18    9   10 ar
    19   10   11 1
    20   10   32 ar
    21   11   16 ar
    22   11   12 ar
    23   12   13 ar
    24   12   45 1
    25   13   14 ar
    26   13   31 1
    27   14   15 ar
    28   14   21 1
    29   15   16 ar
    30   15   46 1
    31   16   17 1
    32   17   18 1
    33   18   19 1
    34   18   47 1
    35   18   48 1
    36   19   20 1
    37   19   49 1
    38   19   50 1
    39   20   51 1
    40   21   22 1
    41   21   52 1
    42   21   53 1
    43   22   23 1
    44   22   54 1
    45   22   55 1
    46   23   24 1
    47   23   56 1
    48   23   57 1
    49   24   25 1
    50   24   58 1
    51   24   59 1
    52   25   30 1
    53   25   26 1
    54   26   27 1
    55   26   60 1
    56   26   61 1
    57   27   28 1
    58   27   62 1
    59   27   63 1
    60   28   29 1
    61   29   30 1
    62   29   64 1
    63   29   65 1
    64   30   66 1
    65   30   67 1
    66   31   68 1
    67   32   37 1
    68   32   33 ar
    69   33   34 1
    70   34   35 2
    71   34   36 am
    72   36   37 am
    73   36   69 1
    74   37   38 2
@<TRIPOS>MOLECULE
CHEMBL258067
   70    75     0     0     0
SMALL
USER_CHARGES

@<TRIPOS>ATOM
      1 C1         -0.0166    1.3753    0.0096 C.ar      1 <0>        -0.1144
      2 C2          1.1702    2.0869    0.0021 C.ar      1 <0>        -0.0924
      3 C3          2.3823    1.4213   -0.0135 C.ar      1 <0>        -0.1079
      4 C4          2.4147    0.0403   -0.0213 C.ar      1 <0>         0.0001
      5 C5          1.2208   -0.6823   -0.0133 C.ar      1 <0>        -0.0607
      6 C6          0.0021   -0.0041    0.0020 C.ar      1 <0>        -0.0852
      7 C7          1.2476   -2.1633   -0.0220 C.ar      1 <0>         0.0635
      8 C8          0.7443   -2.8623   -1.1176 C.ar      1 <0>        -0.1032
      9 C9          0.7641   -4.2503   -1.1370 C.ar      1 <0>         0.1716
     10 C10         1.2978   -4.9603   -0.0406 C.ar      1 <0>        -0.0325
     11 C11         1.1711   -6.3898   -0.3691 C.ar      1 <0>        -0.0910
     12 C12         1.5141   -7.5614    0.3052 C.ar      1 <0>        -0.0676
     13 C13         1.2616   -8.7878   -0.2800 C.ar      1 <0>         0.0784
     14 C14         0.6683   -8.8531   -1.5363 C.ar      1 <0>        -0.0708
     15 C15         0.3265   -7.7006   -2.2102 C.ar      1 <0>        -0.1245
     16 C16         0.5722   -6.4571   -1.6364 C.ar      1 <0>         0.1472
     17 N1          0.3368   -5.1656   -2.0786 N.pl3     1 <0>        -0.4955
     18 C17        -0.2788   -4.8200   -3.3623 C.3       1 <0>         0.1123
     19 C18         0.8102   -4.6727   -4.4269 C.3       1 <0>         0.0591
     20 O1          0.2098   -4.3355   -5.6790 O.3       1 <0>        -0.5674
     21 C19         0.3975  -10.1952   -2.1661 C.3       1 <0>        -0.0698
     22 C20         1.6870  -10.7371   -2.7860 C.3       1 <0>        -0.1113
     23 C21         1.4121  -12.0997   -3.4254 C.3       1 <0>        -0.1480
     24 C22         2.7016  -12.6416   -4.0454 C.3       1 <0>        -0.0103
     25 N2          2.4377  -13.9498   -4.6592 N.4       1 <0>        -0.3856
     26 C23         2.0736  -14.9168   -3.6145 C.3       1 <0>        -0.0480
     27 C24         1.7988  -16.2789   -4.2566 C.3       1 <0>         0.0360
     28 O2          2.9573  -16.7005   -4.9819 O.3       1 <0>        -0.3567
     29 C25         3.3661  -15.7787   -5.9963 C.3       1 <0>         0.0357
     30 C26         3.6437  -14.4157   -5.3575 C.3       1 <0>        -0.0438
     31 O3          1.5943   -9.9330    0.3737 O.3       1 <0>        -0.4918
     32 C27         1.8044   -4.2673    1.0595 C.ar      1 <0>        -0.0800
     33 C28         1.7840   -2.8596    1.0679 C.ar      1 <0>        -0.1452
     34 C29         2.3884   -2.4533    2.3485 C.2       1 <0>         0.5769
     35 O4          2.5449   -1.3094    2.7274 O.2       1 <0>        -0.4405
     36 N3          2.7379   -3.5599    3.0287 N.am      1 <0>        -0.6795
     37 C30         2.4184   -4.6701    2.3393 C.2       1 <0>         0.5809
     38 O5          2.6139   -5.8124    2.7038 O.2       1 <0>        -0.4593
     39 Cl1         3.9368   -0.7943   -0.0415 Cl        1 <0>        -0.0627
     40 H1         -0.9598    1.9012    0.0260 H         1 <0>         0.1352
     41 H2          1.1498    3.1667    0.0081 H         1 <0>         0.1368
     42 H3          3.3052    1.9822   -0.0201 H         1 <0>         0.1383
     43 H4         -0.9252   -0.5577    0.0083 H         1 <0>         0.1348
     44 H5          0.3356   -2.3202   -1.9575 H         1 <0>         0.1472
     45 H6          1.9754   -7.5105    1.2804 H         1 <0>         0.1500
     46 H7         -0.1334   -7.7627   -3.1854 H         1 <0>         0.1309
     47 H8         -0.9710   -5.6085   -3.6574 H         1 <0>         0.1013
     48 H9         -0.8204   -3.8791   -3.2640 H         1 <0>         0.1031
     49 H10         1.5024   -3.8841   -4.1319 H         1 <0>         0.0555
     50 H11         1.3518   -5.6135   -4.5253 H         1 <0>         0.0512
     51 H12         0.8426   -4.2262   -6.4019 H         1 <0>         0.3916
     52 H13         0.0412  -10.8887   -1.4044 H         1 <0>         0.0804
     53 H14        -0.3607  -10.0863   -2.9416 H         1 <0>         0.0760
     54 H15         2.0434  -10.0436   -3.5477 H         1 <0>         0.0735
     55 H16         2.4452  -10.8460   -2.0105 H         1 <0>         0.0845
     56 H17         1.0558  -12.7932   -2.6637 H         1 <0>         0.0884
     57 H18         0.6539  -11.9908   -4.2009 H         1 <0>         0.0867
     58 H19         3.0580  -11.9481   -4.8070 H         1 <0>         0.1322
     59 H20         3.4598  -12.7505   -3.2698 H         1 <0>         0.1320
     60 H21         2.8939  -15.0092   -2.9027 H         1 <0>         0.1396
     61 H22         1.1789  -14.5722   -3.0959 H         1 <0>         0.1436
     62 H23         1.5706  -17.0083   -3.4794 H         1 <0>         0.1419
     63 H24         0.9526  -16.1958   -4.9386 H         1 <0>         0.0808
     64 H25         4.2721  -16.1461   -6.4783 H         1 <0>         0.1419
     65 H26         2.5735  -15.6785   -6.7379 H         1 <0>         0.0809
     66 H27         3.9146  -13.6991   -6.1328 H         1 <0>         0.1422
     67 H28         4.4634  -14.5083   -4.6450 H         1 <0>         0.1391
     68 H29         0.8923  -10.2803    0.9408 H         1 <0>         0.3889
     69 H30         3.1568   -3.5579    3.9036 H         1 <0>         0.4333
     70 H31         1.6787  -13.8651   -5.3186 H         1 <0>         0.4222
@<TRIPOS>BOND
     1    1    6 ar
     2    1    2 ar
     3    1   40 1
     4    2    3 ar
     5    2   41 1
     6    3    4 ar
     7    3   42 1
     8    4    5 ar
     9    4   39 1
    10    5    6 ar
    11    5    7 1
    12    6   43 1
    13    7   33 ar
    14    7    8 ar
    15    8    9 ar
    16    8   44 1
    17    9   17 1
    18    9   10 ar
    19   10   11 1
    20   10   32 ar
    21   11   16 ar
    22   11   12 ar
    23   12   13 ar
    24   12   45 1
    25   13   14 ar
    26   13   31 1
    27   14   15 ar
    28   14   21 1
    29   15   16 ar
    30   15   46 1
    31   16   17 1
    32   17   18 1
    33   18   19 1
    34   18   47 1
    35   18   48 1
    36   19   20 1
    37   19   49 1
    38   19   50 1
    39   20   51 1
    40   21   22 1
    41   21   52 1
    42   21   53 1
    43   22   23 1
    44   22   54 1
    45   22   55 1
    46   23   24 1
    47   23   56 1
    48   23   57 1
    49   24   25 1
    50   24   58 1
    51   24   59 1
    52   25   30 1
    53   25   26 1
    54   25   70 1
    55   26   27 1
    56   26   60 1
    57   26   61 1
    58   27   28 1
    59   27   62 1
    60   27   63 1
    61   28   29 1
    62   29   30 1
    63   29   64 1
    64   29   65 1
    65   30   66 1
    66   30   67 1
    67   31   68 1
    68   32   37 1
    69   32   33 ar
    70   33   34 1
    71   34   35 2
    72   34   36 am
    73   36   37 am
    74   36   69 1
    75   37   38 2
@<TRIPOS>MOLECULE
CHEMBL255565
   69    74     0     0     0
SMALL
USER_CHARGES

@<TRIPOS>ATOM
      1 C1         -0.0166    1.3753    0.0096 C.ar      1 <0>        -0.1144
      2 C2          1.1702    2.0869    0.0021 C.ar      1 <0>        -0.0925
      3 C3          2.3823    1.4213   -0.0135 C.ar      1 <0>        -0.1079
      4 C4          2.4147    0.0403   -0.0213 C.ar      1 <0>         0.0001
      5 C5          1.2208   -0.6823   -0.0133 C.ar      1 <0>        -0.0605
      6 C6          0.0021   -0.0041    0.0020 C.ar      1 <0>        -0.0852
      7 C7          1.2476   -2.1633   -0.0220 C.ar      1 <0>         0.0633
      8 C8          0.7443   -2.8623   -1.1176 C.ar      1 <0>        -0.1033
      9 C9          0.7641   -4.2503   -1.1370 C.ar      1 <0>         0.1716
     10 C10         1.2978   -4.9603   -0.0406 C.ar      1 <0>        -0.0323
     11 C11         1.1711   -6.3898   -0.3691 C.ar      1 <0>        -0.0913
     12 C12         1.5141   -7.5614    0.3052 C.ar      1 <0>        -0.0677
     13 C13         1.2616   -8.7878   -0.2800 C.ar      1 <0>         0.0786
     14 C14         0.6683   -8.8531   -1.5363 C.ar      1 <0>        -0.0703
     15 C15         0.3265   -7.7006   -2.2102 C.ar      1 <0>        -0.1246
     16 C16         0.5722   -6.4571   -1.6364 C.ar      1 <0>         0.1470
     17 N1          0.3368   -5.1656   -2.0786 N.pl3     1 <0>        -0.4956
     18 C17        -0.2788   -4.8200   -3.3623 C.3       1 <0>         0.1124
     19 C18         0.8102   -4.6727   -4.4269 C.3       1 <0>         0.0591
     20 O1          0.2098   -4.3355   -5.6790 O.3       1 <0>        -0.5675
     21 C19         0.3975  -10.1952   -2.1661 C.3       1 <0>        -0.0699
     22 C20         1.6870  -10.7371   -2.7860 C.3       1 <0>        -0.1115
     23 C21         1.4121  -12.0997   -3.4254 C.3       1 <0>        -0.1464
     24 C22         2.7016  -12.6416   -4.0454 C.3       1 <0>        -0.0062
     25 N2          2.4377  -13.9498   -4.6592 N.4       1 <0>        -0.3949
     26 C23         1.5659  -13.7898   -5.8511 C.3       1 <0>        -0.0068
     27 C24         1.8434  -15.0763   -6.6686 C.3       1 <0>        -0.1462
     28 C25         3.3574  -15.3029   -6.4532 C.3       1 <0>        -0.1456
     29 C26         3.6976  -14.5427   -5.1579 C.3       1 <0>        -0.0088
     30 O2          1.5943   -9.9330    0.3737 O.3       1 <0>        -0.4917
     31 C27         1.8044   -4.2673    1.0595 C.ar      1 <0>        -0.0800
     32 C28         1.7840   -2.8596    1.0679 C.ar      1 <0>        -0.1454
     33 C29         2.3884   -2.4533    2.3485 C.2       1 <0>         0.5770
     34 O3          2.5449   -1.3094    2.7274 O.2       1 <0>        -0.4408
     35 N3          2.7379   -3.5599    3.0287 N.am      1 <0>        -0.6796
     36 C30         2.4184   -4.6701    2.3393 C.2       1 <0>         0.5808
     37 O4          2.6139   -5.8124    2.7038 O.2       1 <0>        -0.4592
     38 Cl1         3.9368   -0.7943   -0.0415 Cl        1 <0>        -0.0627
     39 H1         -0.9598    1.9012    0.0260 H         1 <0>         0.1352
     40 H2          1.1498    3.1667    0.0081 H         1 <0>         0.1367
     41 H3          3.3052    1.9822   -0.0201 H         1 <0>         0.1383
     42 H4         -0.9252   -0.5577    0.0083 H         1 <0>         0.1348
     43 H5          0.3356   -2.3202   -1.9575 H         1 <0>         0.1471
     44 H6          1.9754   -7.5105    1.2804 H         1 <0>         0.1500
     45 H7         -0.1334   -7.7627   -3.1854 H         1 <0>         0.1308
     46 H8         -0.9710   -5.6085   -3.6574 H         1 <0>         0.1013
     47 H9         -0.8204   -3.8791   -3.2640 H         1 <0>         0.1030
     48 H10         1.5024   -3.8841   -4.1319 H         1 <0>         0.0555
     49 H11         1.3518   -5.6135   -4.5253 H         1 <0>         0.0513
     50 H12         0.8426   -4.2262   -6.4019 H         1 <0>         0.3915
     51 H13         0.0412  -10.8887   -1.4044 H         1 <0>         0.0805
     52 H14        -0.3607  -10.0863   -2.9416 H         1 <0>         0.0755
     53 H15         2.0434  -10.0436   -3.5477 H         1 <0>         0.0724
     54 H16         2.4452  -10.8460   -2.0105 H         1 <0>         0.0840
     55 H17         1.0558  -12.7932   -2.6637 H         1 <0>         0.0876
     56 H18         0.6539  -11.9908   -4.2009 H         1 <0>         0.0850
     57 H19         3.0580  -11.9481   -4.8070 H         1 <0>         0.1280
     58 H20         3.4598  -12.7505   -3.2698 H         1 <0>         0.1305
     59 H21         0.5175  -13.7396   -5.5569 H         1 <0>         0.1346
     60 H22         1.8499  -12.9041   -6.4193 H         1 <0>         0.1328
     61 H23         1.2681  -15.9146   -6.2757 H         1 <0>         0.0979
     62 H24         1.6236  -14.9174   -7.7243 H         1 <0>         0.1160
     63 H25         3.5677  -16.3658   -6.3343 H         1 <0>         0.1049
     64 H26         3.9238  -14.8958   -7.2907 H         1 <0>         0.1032
     65 H27         4.4207  -13.7549   -5.3688 H         1 <0>         0.1299
     66 H28         4.1017  -15.2330   -4.4175 H         1 <0>         0.1319
     67 H29         0.8923  -10.2803    0.9408 H         1 <0>         0.3891
     68 H30         3.1568   -3.5579    3.9036 H         1 <0>         0.4333
     69 H31         2.0035  -14.5675   -3.9898 H         1 <0>         0.4266
@<TRIPOS>BOND
     1    1    6 ar
     2    1    2 ar
     3    1   39 1
     4    2    3 ar
     5    2   40 1
     6    3    4 ar
     7    3   41 1
     8    4    5 ar
     9    4   38 1
    10    5    6 ar
    11    5    7 1
    12    6   42 1
    13    7   32 ar
    14    7    8 ar
    15    8    9 ar
    16    8   43 1
    17    9   17 1
    18    9   10 ar
    19   10   11 1
    20   10   31 ar
    21   11   16 ar
    22   11   12 ar
    23   12   13 ar
    24   12   44 1
    25   13   14 ar
    26   13   30 1
    27   14   15 ar
    28   14   21 1
    29   15   16 ar
    30   15   45 1
    31   16   17 1
    32   17   18 1
    33   18   19 1
    34   18   46 1
    35   18   47 1
    36   19   20 1
    37   19   48 1
    38   19   49 1
    39   20   50 1
    40   21   22 1
    41   21   51 1
    42   21   52 1
    43   22   23 1
    44   22   53 1
    45   22   54 1
    46   23   24 1
    47   23   55 1
    48   23   56 1
    49   24   25 1
    50   24   57 1
    51   24   58 1
    52   25   29 1
    53   25   26 1
    54   25   69 1
    55   26   27 1
    56   26   59 1
    57   26   60 1
    58   27   28 1
    59   27   61 1
    60   27   62 1
    61   28   29 1
    62   28   63 1
    63   28   64 1
    64   29   65 1
    65   29   66 1
    66   30   67 1
    67   31   36 1
    68   31   32 ar
    69   32   33 1
    70   33   34 2
    71   33   35 am
    72   35   36 am
    73   35   68 1
    74   36   37 2
@<TRIPOS>MOLECULE
CHEMBL486517
   51    56     0     0     0
SMALL
USER_CHARGES

@<TRIPOS>ATOM
      1 C1         -0.0166    1.3753    0.0096 C.ar      1 <0>        -0.1154
      2 C2          1.1702    2.0869    0.0021 C.ar      1 <0>        -0.0949
      3 C3          2.3823    1.4213   -0.0135 C.ar      1 <0>        -0.1083
      4 C4          2.4147    0.0403   -0.0213 C.ar      1 <0>        -0.0004
      5 C5          1.2208   -0.6823   -0.0133 C.ar      1 <0>        -0.0553
      6 C6          0.0021   -0.0041    0.0020 C.ar      1 <0>        -0.0858
      7 C7          1.2476   -2.1633   -0.0220 C.ar      1 <0>         0.0590
      8 C8          0.7443   -2.8623   -1.1176 C.ar      1 <0>        -0.1085
      9 C9          0.7641   -4.2503   -1.1370 C.ar      1 <0>         0.1738
     10 C10         1.2978   -4.9603   -0.0406 C.ar      1 <0>        -0.0279
     11 C11         1.1711   -6.3898   -0.3691 C.ar      1 <0>        -0.0939
     12 C12         1.5141   -7.5614    0.3052 C.ar      1 <0>        -0.0743
     13 C13         1.2616   -8.7878   -0.2800 C.ar      1 <0>         0.0812
     14 C14         0.6683   -8.8531   -1.5363 C.ar      1 <0>        -0.0940
     15 C15         0.3265   -7.7006   -2.2102 C.ar      1 <0>        -0.1262
     16 C16         0.5722   -6.4571   -1.6364 C.ar      1 <0>         0.1393
     17 N1          0.3368   -5.1656   -2.0786 N.pl3     1 <0>        -0.4936
     18 C17        -0.2788   -4.8200   -3.3623 C.3       1 <0>         0.1371
     19 C18         0.8102   -4.6727   -4.4269 C.3       1 <0>        -0.5192
     20 S1          0.0480   -4.2447   -6.0164 S.o       1 <0>         1.5301
     21 O1         -0.6839   -5.3599   -6.5062 O.2       1 <0>        -0.7971
     22 N2          1.3314   -4.1201   -7.0555 N.pl3     1 <0>        -0.5440
     23 C19         2.0420   -2.9963   -7.3066 C.2       1 <0>        -0.0199
     24 C20         2.9896   -3.3431   -8.2087 C.2       1 <0>        -0.0405
     25 N3          2.8146   -4.6449   -8.4620 N.2       1 <0>        -0.2485
     26 N4          1.8279   -5.0769   -7.7589 N.2       1 <0>        -0.0593
     27 O2          1.5943   -9.9330    0.3737 O.3       1 <0>        -0.4922
     28 C21         1.8044   -4.2673    1.0595 C.ar      1 <0>        -0.0788
     29 C22         1.7840   -2.8596    1.0679 C.ar      1 <0>        -0.1505
     30 C23         2.3884   -2.4533    2.3485 C.2       1 <0>         0.5791
     31 O3          2.5449   -1.3094    2.7274 O.2       1 <0>        -0.4470
     32 N5          2.7379   -3.5599    3.0287 N.am      1 <0>        -0.6804
     33 C24         2.4184   -4.6701    2.3393 C.2       1 <0>         0.5783
     34 O4          2.6139   -5.8124    2.7038 O.2       1 <0>        -0.4552
     35 Cl1         3.9368   -0.7943   -0.0415 Cl        1 <0>        -0.0611
     36 H1         -0.9598    1.9012    0.0260 H         1 <0>         0.1338
     37 H2          1.1498    3.1667    0.0081 H         1 <0>         0.1349
     38 H3          3.3052    1.9822   -0.0201 H         1 <0>         0.1369
     39 H4         -0.9252   -0.5577    0.0083 H         1 <0>         0.1352
     40 H5          0.3356   -2.3202   -1.9575 H         1 <0>         0.1478
     41 H6          1.9754   -7.5105    1.2804 H         1 <0>         0.1488
     42 H7          0.4742   -9.8149   -1.9876 H         1 <0>         0.1406
     43 H8         -0.1334   -7.7627   -3.1854 H         1 <0>         0.1312
     44 H9         -0.9710   -5.6085   -3.6574 H         1 <0>         0.1011
     45 H10        -0.8204   -3.8791   -3.2640 H         1 <0>         0.1081
     46 H11         1.5024   -3.8841   -4.1319 H         1 <0>         0.1345
     47 H12         1.3518   -5.6135   -4.5253 H         1 <0>         0.1105
     48 H13         1.8846   -2.0192   -6.8744 H         1 <0>         0.2102
     49 H14         3.7393   -2.6960   -8.6395 H         1 <0>         0.1977
     50 H15         0.8923  -10.2803    0.9408 H         1 <0>         0.3913
     51 H16         3.1568   -3.5579    3.9036 H         1 <0>         0.4320
@<TRIPOS>BOND
     1    1    6 ar
     2    1    2 ar
     3    1   36 1
     4    2    3 ar
     5    2   37 1
     6    3    4 ar
     7    3   38 1
     8    4    5 ar
     9    4   35 1
    10    5    6 ar
    11    5    7 1
    12    6   39 1
    13    7   29 ar
    14    7    8 ar
    15    8    9 ar
    16    8   40 1
    17    9   17 1
    18    9   10 ar
    19   10   11 1
    20   10   28 ar
    21   11   16 ar
    22   11   12 ar
    23   12   13 ar
    24   12   41 1
    25   13   14 ar
    26   13   27 1
    27   14   15 ar
    28   14   42 1
    29   15   16 ar
    30   15   43 1
    31   16   17 1
    32   17   18 1
    33   18   19 1
    34   18   44 1
    35   18   45 1
    36   19   20 1
    37   19   46 1
    38   19   47 1
    39   20   21 2
    40   20   22 1
    41   22   26 1
    42   22   23 1
    43   23   24 2
    44   23   48 1
    45   24   25 1
    46   24   49 1
    47   25   26 2
    48   27   50 1
    49   28   33 1
    50   28   29 ar
    51   29   30 1
    52   30   31 2
    53   30   32 am
    54   32   33 am
    55   32   51 1
    56   33   34 2
@<TRIPOS>MOLECULE
CHEMBL486517
   51    56     0     0     0
SMALL
USER_CHARGES

@<TRIPOS>ATOM
      1 C1         -0.0166    1.3753    0.0096 C.ar      1 <0>        -0.1151
      2 C2          1.1702    2.0869    0.0021 C.ar      1 <0>        -0.0948
      3 C3          2.3823    1.4213   -0.0135 C.ar      1 <0>        -0.1087
      4 C4          2.4147    0.0403   -0.0213 C.ar      1 <0>        -0.0007
      5 C5          1.2208   -0.6823   -0.0133 C.ar      1 <0>        -0.0564
      6 C6          0.0021   -0.0041    0.0020 C.ar      1 <0>        -0.0859
      7 C7          1.2476   -2.1633   -0.0220 C.ar      1 <0>         0.0593
      8 C8          0.7443   -2.8623   -1.1176 C.ar      1 <0>        -0.1086
      9 C9          0.7641   -4.2503   -1.1370 C.ar      1 <0>         0.1725
     10 C10         1.2978   -4.9603   -0.0406 C.ar      1 <0>        -0.0274
     11 C11         1.1711   -6.3898   -0.3691 C.ar      1 <0>        -0.0943
     12 C12         1.5141   -7.5614    0.3052 C.ar      1 <0>        -0.0739
     13 C13         1.2616   -8.7878   -0.2800 C.ar      1 <0>         0.0801
     14 C14         0.6683   -8.8531   -1.5363 C.ar      1 <0>        -0.0935
     15 C15         0.3265   -7.7006   -2.2102 C.ar      1 <0>        -0.1258
     16 C16         0.5722   -6.4571   -1.6364 C.ar      1 <0>         0.1401
     17 N1          0.3368   -5.1656   -2.0786 N.pl3     1 <0>        -0.4939
     18 C17        -0.2788   -4.8200   -3.3623 C.3       1 <0>         0.1376
     19 C18         0.8102   -4.6727   -4.4269 C.3       1 <0>        -0.5159
     20 S1          0.0480   -4.2447   -6.0164 S.o       1 <0>         1.5393
     21 O1         -0.4717   -2.9237   -5.9520 O.2       1 <0>        -0.8159
     22 N2          1.3314   -4.1201   -7.0555 N.pl3     1 <0>        -0.5429
     23 C19         2.0420   -2.9963   -7.3066 C.2       1 <0>        -0.0349
     24 C20         2.9896   -3.3431   -8.2087 C.2       1 <0>        -0.0358
     25 N3          2.8146   -4.6449   -8.4620 N.2       1 <0>        -0.2397
     26 N4          1.8279   -5.0769   -7.7589 N.2       1 <0>        -0.0398
     27 O2          1.5943   -9.9330    0.3737 O.3       1 <0>        -0.4927
     28 C21         1.8044   -4.2673    1.0595 C.ar      1 <0>        -0.0799
     29 C22         1.7840   -2.8596    1.0679 C.ar      1 <0>        -0.1500
     30 C23         2.3884   -2.4533    2.3485 C.2       1 <0>         0.5791
     31 O3          2.5449   -1.3094    2.7274 O.2       1 <0>        -0.4464
     32 N5          2.7379   -3.5599    3.0287 N.am      1 <0>        -0.6800
     33 C24         2.4184   -4.6701    2.3393 C.2       1 <0>         0.5794
     34 O4          2.6139   -5.8124    2.7038 O.2       1 <0>        -0.4551
     35 Cl1         3.9368   -0.7943   -0.0415 Cl        1 <0>        -0.0616
     36 H1         -0.9598    1.9012    0.0260 H         1 <0>         0.1343
     37 H2          1.1498    3.1667    0.0081 H         1 <0>         0.1356
     38 H3          3.3052    1.9822   -0.0201 H         1 <0>         0.1374
     39 H4         -0.9252   -0.5577    0.0083 H         1 <0>         0.1347
     40 H5          0.3356   -2.3202   -1.9575 H         1 <0>         0.1427
     41 H6          1.9754   -7.5105    1.2804 H         1 <0>         0.1478
     42 H7          0.4742   -9.8149   -1.9876 H         1 <0>         0.1420
     43 H8         -0.1334   -7.7627   -3.1854 H         1 <0>         0.1365
     44 H9         -0.9710   -5.6085   -3.6574 H         1 <0>         0.1116
     45 H10        -0.8204   -3.8791   -3.2640 H         1 <0>         0.0991
     46 H11         1.5024   -3.8841   -4.1319 H         1 <0>         0.1061
     47 H12         1.3518   -5.6135   -4.5253 H         1 <0>         0.1390
     48 H13         1.8846   -2.0192   -6.8744 H         1 <0>         0.1957
     49 H14         3.7393   -2.6960   -8.6395 H         1 <0>         0.1966
     50 H15         0.8923  -10.2803    0.9408 H         1 <0>         0.3912
     51 H16         3.1568   -3.5579    3.9036 H         1 <0>         0.4321
@<TRIPOS>BOND
     1    1    6 ar
     2    1    2 ar
     3    1   36 1
     4    2    3 ar
     5    2   37 1
     6    3    4 ar
     7    3   38 1
     8    4    5 ar
     9    4   35 1
    10    5    6 ar
    11    5    7 1
    12    6   39 1
    13    7   29 ar
    14    7    8 ar
    15    8    9 ar
    16    8   40 1
    17    9   17 1
    18    9   10 ar
    19   10   11 1
    20   10   28 ar
    21   11   16 ar
    22   11   12 ar
    23   12   13 ar
    24   12   41 1
    25   13   14 ar
    26   13   27 1
    27   14   15 ar
    28   14   42 1
    29   15   16 ar
    30   15   43 1
    31   16   17 1
    32   17   18 1
    33   18   19 1
    34   18   44 1
    35   18   45 1
    36   19   20 1
    37   19   46 1
    38   19   47 1
    39   20   21 2
    40   20   22 1
    41   22   26 1
    42   22   23 1
    43   23   24 2
    44   23   48 1
    45   24   25 1
    46   24   49 1
    47   25   26 2
    48   27   50 1
    49   28   33 1
    50   28   29 ar
    51   29   30 1
    52   30   31 2
    53   30   32 am
    54   32   33 am
    55   32   51 1
    56   33   34 2
@<TRIPOS>MOLECULE
CHEMBL379975
   37    41     0     0     0
SMALL
USER_CHARGES

@<TRIPOS>ATOM
      1 C1         -0.0166    1.3753    0.0096 C.ar      1 <0>        -0.1160
      2 C2          1.1702    2.0869    0.0021 C.ar      1 <0>        -0.0956
      3 C3          2.3823    1.4213   -0.0135 C.ar      1 <0>        -0.1088
      4 C4          2.4147    0.0403   -0.0213 C.ar      1 <0>        -0.0003
      5 C5          1.2208   -0.6823   -0.0133 C.ar      1 <0>        -0.0549
      6 C6          0.0021   -0.0041    0.0020 C.ar      1 <0>        -0.0861
      7 C7          1.2476   -2.1633   -0.0220 C.ar      1 <0>         0.0572
      8 C8          0.7443   -2.8623   -1.1176 C.ar      1 <0>        -0.1051
      9 C9          0.7641   -4.2503   -1.1370 C.ar      1 <0>         0.1736
     10 C10         1.2978   -4.9603   -0.0406 C.ar      1 <0>        -0.0306
     11 C11         1.1711   -6.3898   -0.3691 C.ar      1 <0>        -0.0967
     12 C12         1.5141   -7.5614    0.3052 C.ar      1 <0>        -0.0747
     13 C13         1.2616   -8.7878   -0.2800 C.ar      1 <0>         0.0784
     14 C14         0.6683   -8.8531   -1.5363 C.ar      1 <0>        -0.0956
     15 C15         0.3265   -7.7006   -2.2102 C.ar      1 <0>        -0.1253
     16 C16         0.5722   -6.4571   -1.6364 C.ar      1 <0>         0.1395
     17 N1          0.3368   -5.1656   -2.0786 N.pl3     1 <0>        -0.6069
     18 H1         -0.0708   -4.9367   -2.9286 H         1 <0>         0.4259
     19 O1          1.5943   -9.9330    0.3737 O.3       1 <0>        -0.4930
     20 C17         1.8044   -4.2673    1.0595 C.ar      1 <0>        -0.0806
     21 C18         1.7840   -2.8596    1.0679 C.ar      1 <0>        -0.1505
     22 C19         2.3884   -2.4533    2.3485 C.2       1 <0>         0.5791
     23 O2          2.5449   -1.3094    2.7274 O.2       1 <0>        -0.4475
     24 N2          2.7379   -3.5599    3.0287 N.am      1 <0>        -0.6804
     25 C20         2.4184   -4.6701    2.3393 C.2       1 <0>         0.5791
     26 O3          2.6139   -5.8124    2.7038 O.2       1 <0>        -0.4563
     27 Cl1         3.9368   -0.7943   -0.0415 Cl        1 <0>        -0.0609
     28 H2         -0.9598    1.9012    0.0260 H         1 <0>         0.1336
     29 H3          1.1498    3.1667    0.0081 H         1 <0>         0.1348
     30 H4          3.3052    1.9822   -0.0201 H         1 <0>         0.1370
     31 H5         -0.9252   -0.5577    0.0083 H         1 <0>         0.1349
     32 H6          0.3356   -2.3202   -1.9575 H         1 <0>         0.1475
     33 H7          1.9754   -7.5105    1.2804 H         1 <0>         0.1478
     34 H8          0.4742   -9.8149   -1.9876 H         1 <0>         0.1403
     35 H9         -0.1334   -7.7627   -3.1854 H         1 <0>         0.1347
     36 H10         0.8923  -10.2803    0.9408 H         1 <0>         0.3907
     37 H11         3.1568   -3.5579    3.9036 H         1 <0>         0.4317
@<TRIPOS>BOND
     1    1    6 ar
     2    1    2 ar
     3    1   28 1
     4    2    3 ar
     5    2   29 1
     6    3    4 ar
     7    3   30 1
     8    4    5 ar
     9    4   27 1
    10    5    6 ar
    11    5    7 1
    12    6   31 1
    13    7   21 ar
    14    7    8 ar
    15    8    9 ar
    16    8   32 1
    17    9   17 1
    18    9   10 ar
    19   10   11 1
    20   10   20 ar
    21   11   16 ar
    22   11   12 ar
    23   12   13 ar
    24   12   33 1
    25   13   14 ar
    26   13   19 1
    27   14   15 ar
    28   14   34 1
    29   15   16 ar
    30   15   35 1
    31   16   17 1
    32   17   18 1
    33   19   36 1
    34   20   25 1
    35   20   21 ar
    36   21   22 1
    37   22   23 2
    38   22   24 am
    39   24   25 am
    40   24   37 1
    41   25   26 2
@<TRIPOS>MOLECULE
CHEMBL508412
   64    69     0     0     0
SMALL
USER_CHARGES

@<TRIPOS>ATOM
      1 C1         -0.0178    1.4648    0.0101 C.3       1 <0>        -0.0461
      2 N1          0.0021   -0.0041    0.0020 N.4       1 <0>        -0.3883
      3 C2         -1.3761   -0.5122    0.0107 C.3       1 <0>        -0.0029
      4 C3         -1.3560   -2.0421   -0.0167 C.3       1 <0>         0.0256
      5 N2         -0.6244   -2.5407    1.1564 N.3       1 <0>        -0.5384
      6 C4          0.7499   -2.0201    1.1745 C.3       1 <0>         0.0203
      7 C5          0.7125   -0.4904    1.1921 C.3       1 <0>        -0.0030
      8 C6         -0.6316   -4.0091    1.1963 C.3       1 <0>         0.0580
      9 C7         -0.0856   -4.4853    2.5439 C.3       1 <0>        -0.1404
     10 C8         -0.0931   -6.0148    2.5855 C.3       1 <0>         0.1145
     11 N3          0.4297   -6.4708    3.8758 N.pl3     1 <0>        -0.4995
     12 C9          1.7646   -6.7283    4.1421 C.ar      1 <0>         0.1390
     13 C10         2.9084   -6.6446    3.3542 C.ar      1 <0>        -0.1288
     14 C11         4.1388   -6.9673    3.8844 C.ar      1 <0>        -0.0960
     15 C12         4.2526   -7.3792    5.2080 C.ar      1 <0>         0.0815
     16 C13         3.1275   -7.4683    6.0058 C.ar      1 <0>        -0.0726
     17 C14         1.8783   -7.1433    5.4777 C.ar      1 <0>        -0.0930
     18 C15         0.5171   -7.1299    6.0382 C.ar      1 <0>        -0.0306
     19 C16        -0.3374   -6.6993    5.0012 C.ar      1 <0>         0.1726
     20 C17        -1.7007   -6.5807    5.2350 C.ar      1 <0>        -0.1066
     21 C18        -2.2320   -6.8803    6.4882 C.ar      1 <0>         0.0605
     22 C19        -1.3907   -7.3042    7.5240 C.ar      1 <0>        -0.1474
     23 C20        -0.0079   -7.4361    7.2942 C.ar      1 <0>        -0.0778
     24 C21         0.5723   -7.8948    8.5710 C.2       1 <0>         0.5777
     25 O1          1.7494   -8.1132    8.7775 O.2       1 <0>        -0.4542
     26 N4         -0.4211   -8.0306    9.4678 N.am      1 <0>        -0.6797
     27 C22        -1.6064   -7.6923    8.9287 C.2       1 <0>         0.5771
     28 O2         -2.6779   -7.7148    9.5014 O.2       1 <0>        -0.4437
     29 C23        -3.6883   -6.7496    6.7246 C.ar      1 <0>        -0.0576
     30 C24        -4.5846   -7.5781    6.0495 C.ar      1 <0>        -0.0862
     31 C25        -5.9398   -7.4521    6.2742 C.ar      1 <0>        -0.1149
     32 C26        -6.4116   -6.5061    7.1673 C.ar      1 <0>        -0.0937
     33 C27        -5.5291   -5.6809    7.8400 C.ar      1 <0>        -0.1086
     34 C28        -4.1692   -5.8009    7.6282 C.ar      1 <0>        -0.0002
     35 Cl1        -3.0618   -4.7694    8.4786 Cl        1 <0>        -0.0623
     36 O3          5.4730   -7.6954    5.7179 O.3       1 <0>        -0.4915
     37 H1          1.0047    1.8421    0.0024 H         1 <0>         0.1246
     38 H2         -0.5450    1.8259   -0.8730 H         1 <0>         0.1249
     39 H3         -0.5280    1.8163    0.9069 H         1 <0>         0.1234
     40 H4         -1.8832   -0.1716    0.9134 H         1 <0>         0.1380
     41 H5         -1.9060   -0.1400   -0.8661 H         1 <0>         0.1368
     42 H6         -2.3783   -2.4196    0.0047 H         1 <0>         0.1247
     43 H7         -0.8610   -2.3831   -0.9260 H         1 <0>         0.0617
     44 H8          1.2641   -2.3816    2.0650 H         1 <0>         0.1244
     45 H9          1.2796   -2.3607    0.2848 H         1 <0>         0.0620
     46 H10         1.7310   -0.1020    1.1912 H         1 <0>         0.1362
     47 H11         0.1947   -0.1499    2.0888 H         1 <0>         0.1379
     48 H12        -1.6519   -4.3710    1.0694 H         1 <0>         0.0934
     49 H13        -0.0057   -4.3975    0.3929 H         1 <0>         0.0514
     50 H14         0.9347   -4.1235    2.6709 H         1 <0>         0.0731
     51 H15        -0.7115   -4.0969    3.3473 H         1 <0>         0.0860
     52 H16        -1.1134   -6.3766    2.4585 H         1 <0>         0.0953
     53 H17         0.5328   -6.4032    1.7821 H         1 <0>         0.0937
     54 H18         2.8317   -6.3266    2.3250 H         1 <0>         0.1278
     55 H19         5.0222   -6.9000    3.2668 H         1 <0>         0.1394
     56 H20         3.2153   -7.7881    7.0336 H         1 <0>         0.1493
     57 H21        -2.3543   -6.2535    4.4400 H         1 <0>         0.1431
     58 H22        -0.2976   -8.3216   10.3849 H         1 <0>         0.4335
     59 H23        -4.2182   -8.3167    5.3518 H         1 <0>         0.1343
     60 H24        -6.6344   -8.0930    5.7515 H         1 <0>         0.1345
     61 H25        -7.4736   -6.4117    7.3394 H         1 <0>         0.1361
     62 H26        -5.9033   -4.9444    8.5355 H         1 <0>         0.1376
     63 H27         5.9383   -6.9475    6.1170 H         1 <0>         0.3919
     64 H28         0.4748   -0.3293   -0.8280 H         1 <0>         0.4225
@<TRIPOS>BOND
     1    1    2 1
     2    1   37 1
     3    1   38 1
     4    1   39 1
     5    2    7 1
     6    2    3 1
     7    2   64 1
     8    3    4 1
     9    3   40 1
    10    3   41 1
    11    4    5 1
    12    4   42 1
    13    4   43 1
    14    5    6 1
    15    5    8 1
    16    6    7 1
    17    6   44 1
    18    6   45 1
    19    7   46 1
    20    7   47 1
    21    8    9 1
    22    8   48 1
    23    8   49 1
    24    9   10 1
    25    9   50 1
    26    9   51 1
    27   10   11 1
    28   10   52 1
    29   10   53 1
    30   11   19 1
    31   11   12 1
    32   12   17 ar
    33   12   13 ar
    34   13   14 ar
    35   13   54 1
    36   14   15 ar
    37   14   55 1
    38   15   16 ar
    39   15   36 1
    40   16   17 ar
    41   16   56 1
    42   17   18 1
    43   18   23 ar
    44   18   19 ar
    45   19   20 ar
    46   20   21 ar
    47   20   57 1
    48   21   22 ar
    49   21   29 1
    50   22   27 1
    51   22   23 ar
    52   23   24 1
    53   24   25 2
    54   24   26 am
    55   26   27 am
    56   26   58 1
    57   27   28 2
    58   29   34 ar
    59   29   30 ar
    60   30   31 ar
    61   30   59 1
    62   31   32 ar
    63   31   60 1
    64   32   33 ar
    65   32   61 1
    66   33   34 ar
    67   33   62 1
    68   34   35 1
    69   36   63 1
@<TRIPOS>MOLECULE
CHEMBL508412
   64    69     0     0     0
SMALL
USER_CHARGES

@<TRIPOS>ATOM
      1 C1         -0.0178    1.4648    0.0101 C.3       1 <0>         0.0190
      2 N1          0.0021   -0.0041    0.0020 N.3       1 <0>        -0.5431
      3 C2         -1.3607   -0.5489   -0.0764 C.3       1 <0>         0.0235
      4 C3         -1.2932   -2.0762   -0.1426 C.3       1 <0>        -0.0018
      5 N2         -0.6107   -2.5886    1.0529 N.4       1 <0>        -0.3864
      6 C4          0.7570   -2.0553    1.1043 C.3       1 <0>        -0.0070
      7 C5          0.7065   -0.5278    1.1808 C.3       1 <0>         0.0245
      8 C6         -0.5621   -4.0557    0.9977 C.3       1 <0>        -0.0052
      9 C7          0.0360   -4.5955    2.2984 C.3       1 <0>        -0.1766
     10 C8          0.0866   -6.1236    2.2409 C.3       1 <0>         0.1217
     11 N3          0.6594   -6.6404    3.4863 N.pl3     1 <0>        -0.5035
     12 C9          2.0094   -6.8623    3.7039 C.ar      1 <0>         0.1336
     13 C10         3.1284   -6.6841    2.8966 C.ar      1 <0>        -0.1290
     14 C11         4.3834   -6.9918    3.3758 C.ar      1 <0>        -0.0944
     15 C12         4.5467   -7.4828    4.6668 C.ar      1 <0>         0.0873
     16 C13         3.4467   -7.6664    5.4832 C.ar      1 <0>        -0.0732
     17 C14         2.1730   -7.3572    5.0068 C.ar      1 <0>        -0.0902
     18 C15         0.8273   -7.4325    5.5987 C.ar      1 <0>        -0.0279
     19 C16        -0.0693   -6.9701    4.6122 C.ar      1 <0>         0.1680
     20 C17        -1.4295   -6.9198    4.8850 C.ar      1 <0>        -0.1103
     21 C18        -1.9167   -7.3193    6.1282 C.ar      1 <0>         0.0627
     22 C19        -1.0336   -7.7755    7.1144 C.ar      1 <0>        -0.1436
     23 C20         0.3467   -7.8386    6.8442 C.ar      1 <0>        -0.0759
     24 C21         0.9765   -8.3551    8.0745 C.2       1 <0>         0.5766
     25 O1          2.1659   -8.5402    8.2389 O.2       1 <0>        -0.4516
     26 N4          0.0124   -8.5864    8.9837 N.am      1 <0>        -0.6789
     27 C22        -1.1982   -8.2608    8.4956 C.2       1 <0>         0.5758
     28 O2         -2.2530   -8.3615    9.0906 O.2       1 <0>        -0.4409
     29 C23        -3.3703   -7.2608    6.4067 C.ar      1 <0>        -0.0614
     30 C24        -4.2522   -8.0786    5.7004 C.ar      1 <0>        -0.0862
     31 C25        -5.6049   -8.0200    5.9645 C.ar      1 <0>        -0.1144
     32 C26        -6.0883   -7.1522    6.9279 C.ar      1 <0>        -0.0918
     33 C27        -5.2201   -6.3380    7.6319 C.ar      1 <0>        -0.1080
     34 C28        -3.8627   -6.3912    7.3809 C.ar      1 <0>        -0.0010
     35 Cl1        -2.7728   -5.3739    8.2703 Cl        1 <0>        -0.0619
     36 O3          5.7909   -7.7832    5.1264 O.3       1 <0>        -0.4908
     37 H1          1.0047    1.8421    0.0024 H         1 <0>         0.0849
     38 H2         -0.5450    1.8259   -0.8730 H         1 <0>         0.0847
     39 H3         -0.5280    1.8163    0.9069 H         1 <0>         0.0400
     40 H4         -1.9242   -0.2477    0.8067 H         1 <0>         0.0608
     41 H5         -1.8539   -0.1676   -0.9705 H         1 <0>         0.1251
     42 H6         -2.3035   -2.4830   -0.1865 H         1 <0>         0.1371
     43 H7         -0.7413   -2.3773   -1.0330 H         1 <0>         0.1392
     44 H8          1.2666   -2.4465    1.9848 H         1 <0>         0.1354
     45 H9          1.2983   -2.3564    0.2075 H         1 <0>         0.1397
     46 H10         1.7215   -0.1310    1.2040 H         1 <0>         0.1244
     47 H11         0.1771   -0.2262    2.0846 H         1 <0>         0.0606
     48 H12        -1.5711   -4.4482    0.8715 H         1 <0>         0.1365
     49 H13         0.0569   -4.3674    0.1563 H         1 <0>         0.1362
     50 H14         1.0451   -4.2031    2.4246 H         1 <0>         0.0971
     51 H15        -0.5829   -4.2839    3.1397 H         1 <0>         0.0958
     52 H16        -0.9224   -6.5160    2.1146 H         1 <0>         0.1021
     53 H17         0.7056   -6.4352    1.3995 H         1 <0>         0.1039
     54 H18         3.0133   -6.3041    1.8922 H         1 <0>         0.1289
     55 H19         5.2474   -6.8509    2.7433 H         1 <0>         0.1418
     56 H20         3.5730   -8.0476    6.4858 H         1 <0>         0.1505
     57 H21        -2.1153   -6.5681    4.1284 H         1 <0>         0.1418
     58 H22         0.1703   -8.9304    9.8768 H         1 <0>         0.4348
     59 H23        -3.8767   -8.7563    4.9479 H         1 <0>         0.1344
     60 H24        -6.2884   -8.6528    5.4178 H         1 <0>         0.1354
     61 H25        -7.1483   -7.1103    7.1307 H         1 <0>         0.1372
     62 H26        -5.6035   -5.6625    8.3823 H         1 <0>         0.1386
     63 H27         6.2381   -7.0448    5.5621 H         1 <0>         0.3942
     64 H28        -1.1152   -2.2999    1.8777 H         1 <0>         0.4213
@<TRIPOS>BOND
     1    1    2 1
     2    1   37 1
     3    1   38 1
     4    1   39 1
     5    2    7 1
     6    2    3 1
     7    3    4 1
     8    3   40 1
     9    3   41 1
    10    4    5 1
    11    4   42 1
    12    4   43 1
    13    5    6 1
    14    5    8 1
    15    5   64 1
    16    6    7 1
    17    6   44 1
    18    6   45 1
    19    7   46 1
    20    7   47 1
    21    8    9 1
    22    8   48 1
    23    8   49 1
    24    9   10 1
    25    9   50 1
    26    9   51 1
    27   10   11 1
    28   10   52 1
    29   10   53 1
    30   11   19 1
    31   11   12 1
    32   12   17 ar
    33   12   13 ar
    34   13   14 ar
    35   13   54 1
    36   14   15 ar
    37   14   55 1
    38   15   16 ar
    39   15   36 1
    40   16   17 ar
    41   16   56 1
    42   17   18 1
    43   18   23 ar
    44   18   19 ar
    45   19   20 ar
    46   20   21 ar
    47   20   57 1
    48   21   22 ar
    49   21   29 1
    50   22   27 1
    51   22   23 ar
    52   23   24 1
    53   24   25 2
    54   24   26 am
    55   26   27 am
    56   26   58 1
    57   27   28 2
    58   29   34 ar
    59   29   30 ar
    60   30   31 ar
    61   30   59 1
    62   31   32 ar
    63   31   60 1
    64   32   33 ar
    65   32   61 1
    66   33   34 ar
    67   33   62 1
    68   34   35 1
    69   36   63 1
@<TRIPOS>MOLECULE
CHEMBL452078
   64    69     0     0     0
SMALL
USER_CHARGES

@<TRIPOS>ATOM
      1 C1         -0.0178    1.4648    0.0101 C.3       1 <0>        -0.0461
      2 N1          0.0021   -0.0041    0.0020 N.4       1 <0>        -0.3884
      3 C2         -1.3761   -0.5122    0.0107 C.3       1 <0>        -0.0029
      4 C3         -1.3560   -2.0421   -0.0167 C.3       1 <0>         0.0256
      5 N2         -0.6244   -2.5407    1.1564 N.3       1 <0>        -0.5382
      6 C4          0.7499   -2.0201    1.1745 C.3       1 <0>         0.0203
      7 C5          0.7125   -0.4904    1.1921 C.3       1 <0>        -0.0030
      8 C6         -0.6316   -4.0091    1.1963 C.3       1 <0>         0.0579
      9 C7         -0.0856   -4.4853    2.5439 C.3       1 <0>        -0.1402
     10 C8         -0.0931   -6.0148    2.5855 C.3       1 <0>         0.1139
     11 N3          0.4297   -6.4708    3.8758 N.pl3     1 <0>        -0.4989
     12 C9          1.7647   -6.7283    4.1421 C.ar      1 <0>         0.1401
     13 C10         2.9083   -6.6450    3.3541 C.ar      1 <0>        -0.1288
     14 C11         4.1387   -6.9685    3.8840 C.ar      1 <0>        -0.0954
     15 C12         4.2525   -7.3804    5.2076 C.ar      1 <0>         0.0815
     16 C13         3.1275   -7.4687    6.0056 C.ar      1 <0>        -0.0720
     17 C14         1.8784   -7.1433    5.4777 C.ar      1 <0>        -0.0936
     18 C15         0.5172   -7.1299    6.0382 C.ar      1 <0>        -0.0268
     19 C16        -0.3374   -6.6993    5.0013 C.ar      1 <0>         0.1744
     20 C17        -1.7006   -6.5807    5.2350 C.ar      1 <0>        -0.0983
     21 C18        -2.2320   -6.8800    6.4884 C.ar      1 <0>         0.0580
     22 C19        -1.3905   -7.3039    7.5243 C.ar      1 <0>        -0.1451
     23 C20        -0.0077   -7.4362    7.2943 C.ar      1 <0>        -0.0773
     24 C21         0.5725   -7.8952    8.5708 C.2       1 <0>         0.5783
     25 O1          1.7497   -8.1131    8.7775 O.2       1 <0>        -0.4526
     26 N4         -0.4210   -8.0312    9.4676 N.am      1 <0>        -0.6791
     27 C22        -1.6061   -7.6917    8.9289 C.2       1 <0>         0.5782
     28 O2         -2.6775   -7.7138    9.5017 O.2       1 <0>        -0.4475
     29 C23        -3.6880   -6.7489    6.7249 C.ar      1 <0>        -0.0442
     30 C24        -4.2193   -5.5383    7.1724 C.ar      1 <0>        -0.0036
     31 C25        -5.5781   -5.4229    7.3911 C.ar      1 <0>        -0.1041
     32 C26        -6.4119   -6.5039    7.1680 C.ar      1 <0>        -0.0817
     33 C27        -5.8919   -7.7066    6.7249 C.ar      1 <0>        -0.1022
     34 C28        -4.5358   -7.8337    6.4958 C.ar      1 <0>        -0.0042
     35 Cl1        -3.8863   -9.3416    5.9317 Cl        1 <0>        -0.0456
     36 Cl2        -3.1745   -4.1808    7.4542 Cl        1 <0>        -0.0516
     37 O3          5.4728   -7.6974    5.7173 O.3       1 <0>        -0.4913
     38 H1          1.0047    1.8421    0.0024 H         1 <0>         0.1246
     39 H2         -0.5450    1.8259   -0.8730 H         1 <0>         0.1249
     40 H3         -0.5280    1.8163    0.9069 H         1 <0>         0.1234
     41 H4         -1.8832   -0.1716    0.9134 H         1 <0>         0.1380
     42 H5         -1.9060   -0.1400   -0.8661 H         1 <0>         0.1368
     43 H6         -2.3783   -2.4196    0.0047 H         1 <0>         0.1247
     44 H7         -0.8610   -2.3831   -0.9260 H         1 <0>         0.0617
     45 H8          1.2641   -2.3816    2.0650 H         1 <0>         0.1244
     46 H9          1.2796   -2.3607    0.2848 H         1 <0>         0.0620
     47 H10         1.7310   -0.1020    1.1912 H         1 <0>         0.1361
     48 H11         0.1947   -0.1499    2.0888 H         1 <0>         0.1378
     49 H12        -1.6519   -4.3710    1.0694 H         1 <0>         0.0934
     50 H13        -0.0057   -4.3975    0.3929 H         1 <0>         0.0515
     51 H14         0.9347   -4.1235    2.6709 H         1 <0>         0.0733
     52 H15        -0.7115   -4.0969    3.3473 H         1 <0>         0.0862
     53 H16        -1.1134   -6.3766    2.4585 H         1 <0>         0.0953
     54 H17         0.5328   -6.4032    1.7821 H         1 <0>         0.0942
     55 H18         2.8316   -6.3266    2.3249 H         1 <0>         0.1280
     56 H19         5.0220   -6.9018    3.2662 H         1 <0>         0.1395
     57 H20         3.2153   -7.7889    7.0333 H         1 <0>         0.1494
     58 H21        -2.3543   -6.2539    4.4398 H         1 <0>         0.1422
     59 H22        -0.2974   -8.3220   10.3847 H         1 <0>         0.4340
     60 H23        -5.9906   -4.4868    7.7374 H         1 <0>         0.1449
     61 H24        -7.4737   -6.4084    7.3408 H         1 <0>         0.1475
     62 H25        -6.5484   -8.5469    6.5533 H         1 <0>         0.1462
     63 H26         5.9387   -6.9498    6.1162 H         1 <0>         0.3919
     64 H27         0.4748   -0.3293   -0.8280 H         1 <0>         0.4225
@<TRIPOS>BOND
     1    1    2 1
     2    1   38 1
     3    1   39 1
     4    1   40 1
     5    2    7 1
     6    2    3 1
     7    2   64 1
     8    3    4 1
     9    3   41 1
    10    3   42 1
    11    4    5 1
    12    4   43 1
    13    4   44 1
    14    5    6 1
    15    5    8 1
    16    6    7 1
    17    6   45 1
    18    6   46 1
    19    7   47 1
    20    7   48 1
    21    8    9 1
    22    8   49 1
    23    8   50 1
    24    9   10 1
    25    9   51 1
    26    9   52 1
    27   10   11 1
    28   10   53 1
    29   10   54 1
    30   11   19 1
    31   11   12 1
    32   12   17 ar
    33   12   13 ar
    34   13   14 ar
    35   13   55 1
    36   14   15 ar
    37   14   56 1
    38   15   16 ar
    39   15   37 1
    40   16   17 ar
    41   16   57 1
    42   17   18 1
    43   18   23 ar
    44   18   19 ar
    45   19   20 ar
    46   20   21 ar
    47   20   58 1
    48   21   22 ar
    49   21   29 1
    50   22   27 1
    51   22   23 ar
    52   23   24 1
    53   24   25 2
    54   24   26 am
    55   26   27 am
    56   26   59 1
    57   27   28 2
    58   29   34 ar
    59   29   30 ar
    60   30   31 ar
    61   30   36 1
    62   31   32 ar
    63   31   60 1
    64   32   33 ar
    65   32   61 1
    66   33   34 ar
    67   33   62 1
    68   34   35 1
    69   37   63 1
@<TRIPOS>MOLECULE
CHEMBL452078
   64    69     0     0     0
SMALL
USER_CHARGES

@<TRIPOS>ATOM
      1 C1         -0.0178    1.4648    0.0101 C.3       1 <0>         0.0191
      2 N1          0.0021   -0.0041    0.0020 N.3       1 <0>        -0.5430
      3 C2         -1.3607   -0.5489   -0.0764 C.3       1 <0>         0.0236
      4 C3         -1.2932   -2.0762   -0.1426 C.3       1 <0>        -0.0019
      5 N2         -0.6107   -2.5886    1.0529 N.4       1 <0>        -0.3864
      6 C4          0.7570   -2.0553    1.1043 C.3       1 <0>        -0.0071
      7 C5          0.7065   -0.5278    1.1808 C.3       1 <0>         0.0246
      8 C6         -0.5621   -4.0557    0.9977 C.3       1 <0>        -0.0054
      9 C7          0.0360   -4.5955    2.2984 C.3       1 <0>        -0.1767
     10 C8          0.0866   -6.1236    2.2409 C.3       1 <0>         0.1211
     11 N3          0.6594   -6.6404    3.4863 N.pl3     1 <0>        -0.5028
     12 C9          2.0095   -6.8623    3.7039 C.ar      1 <0>         0.1348
     13 C10         3.1284   -6.6845    2.8964 C.ar      1 <0>        -0.1289
     14 C11         4.3833   -6.9930    3.3753 C.ar      1 <0>        -0.0938
     15 C12         4.5466   -7.4840    4.6663 C.ar      1 <0>         0.0872
     16 C13         3.4467   -7.6668    5.4831 C.ar      1 <0>        -0.0725
     17 C14         2.1731   -7.3572    5.0068 C.ar      1 <0>        -0.0908
     18 C15         0.8273   -7.4326    5.5987 C.ar      1 <0>        -0.0239
     19 C16        -0.0693   -6.9701    4.6122 C.ar      1 <0>         0.1699
     20 C17        -1.4294   -6.9199    4.8850 C.ar      1 <0>        -0.1022
     21 C18        -1.9167   -7.3190    6.1284 C.ar      1 <0>         0.0600
     22 C19        -1.0335   -7.7752    7.1147 C.ar      1 <0>        -0.1412
     23 C20         0.3469   -7.8386    6.8442 C.ar      1 <0>        -0.0754
     24 C21         0.9767   -8.3554    8.0744 C.2       1 <0>         0.5773
     25 O1          2.1661   -8.5401    8.2389 O.2       1 <0>        -0.4499
     26 N4          0.0125   -8.5870    8.9835 N.am      1 <0>        -0.6782
     27 C22        -1.1980   -8.2601    8.4958 C.2       1 <0>         0.5770
     28 O2         -2.2526   -8.3605    9.0910 O.2       1 <0>        -0.4446
     29 C23        -3.3699   -7.2601    6.4070 C.ar      1 <0>        -0.0474
     30 C24        -3.9343   -6.1021    6.9445 C.ar      1 <0>        -0.0047
     31 C25        -5.2904   -6.0539    7.2019 C.ar      1 <0>        -0.1035
     32 C26        -6.0888   -7.1500    6.9287 C.ar      1 <0>        -0.0800
     33 C27        -5.5359   -8.3008    6.3965 C.ar      1 <0>        -0.1010
     34 C28        -4.1824   -8.3602    6.1280 C.ar      1 <0>        -0.0044
     35 Cl1        -3.4919   -9.8025    5.4522 Cl        1 <0>        -0.0445
     36 Cl2        -2.9339   -4.7258    7.2891 Cl        1 <0>        -0.0532
     37 O3          5.7907   -7.7852    5.1256 O.3       1 <0>        -0.4907
     38 H1          1.0047    1.8421    0.0024 H         1 <0>         0.0849
     39 H2         -0.5450    1.8259   -0.8730 H         1 <0>         0.0847
     40 H3         -0.5280    1.8163    0.9069 H         1 <0>         0.0399
     41 H4         -1.9242   -0.2477    0.8067 H         1 <0>         0.0608
     42 H5         -1.8539   -0.1676   -0.9705 H         1 <0>         0.1251
     43 H6         -2.3035   -2.4830   -0.1865 H         1 <0>         0.1372
     44 H7         -0.7413   -2.3773   -1.0330 H         1 <0>         0.1393
     45 H8          1.2666   -2.4465    1.9848 H         1 <0>         0.1354
     46 H9          1.2983   -2.3564    0.2075 H         1 <0>         0.1398
     47 H10         1.7215   -0.1310    1.2040 H         1 <0>         0.1244
     48 H11         0.1771   -0.2262    2.0846 H         1 <0>         0.0605
     49 H12        -1.5711   -4.4482    0.8715 H         1 <0>         0.1365
     50 H13         0.0569   -4.3674    0.1563 H         1 <0>         0.1364
     51 H14         1.0451   -4.2031    2.4246 H         1 <0>         0.0974
     52 H15        -0.5829   -4.2839    3.1397 H         1 <0>         0.0958
     53 H16        -0.9224   -6.5160    2.1146 H         1 <0>         0.1022
     54 H17         0.7056   -6.4352    1.3995 H         1 <0>         0.1044
     55 H18         3.0133   -6.3042    1.8922 H         1 <0>         0.1291
     56 H19         5.2472   -6.8527    2.7426 H         1 <0>         0.1419
     57 H20         3.5729   -8.0483    6.4855 H         1 <0>         0.1507
     58 H21        -2.1152   -6.5685    4.1282 H         1 <0>         0.1410
     59 H22         0.1705   -8.9308    9.8767 H         1 <0>         0.4354
     60 H23        -5.7284   -5.1586    7.6177 H         1 <0>         0.1457
     61 H24        -7.1485   -7.1071    7.1323 H         1 <0>         0.1486
     62 H25        -6.1648   -9.1533    6.1862 H         1 <0>         0.1473
     63 H26         6.2385   -7.0471    5.5612 H         1 <0>         0.3942
     64 H27        -1.1152   -2.2999    1.8777 H         1 <0>         0.4212
@<TRIPOS>BOND
     1    1    2 1
     2    1   38 1
     3    1   39 1
     4    1   40 1
     5    2    7 1
     6    2    3 1
     7    3    4 1
     8    3   41 1
     9    3   42 1
    10    4    5 1
    11    4   43 1
    12    4   44 1
    13    5    6 1
    14    5    8 1
    15    5   64 1
    16    6    7 1
    17    6   45 1
    18    6   46 1
    19    7   47 1
    20    7   48 1
    21    8    9 1
    22    8   49 1
    23    8   50 1
    24    9   10 1
    25    9   51 1
    26    9   52 1
    27   10   11 1
    28   10   53 1
    29   10   54 1
    30   11   19 1
    31   11   12 1
    32   12   17 ar
    33   12   13 ar
    34   13   14 ar
    35   13   55 1
    36   14   15 ar
    37   14   56 1
    38   15   16 ar
    39   15   37 1
    40   16   17 ar
    41   16   57 1
    42   17   18 1
    43   18   23 ar
    44   18   19 ar
    45   19   20 ar
    46   20   21 ar
    47   20   58 1
    48   21   22 ar
    49   21   29 1
    50   22   27 1
    51   22   23 ar
    52   23   24 1
    53   24   25 2
    54   24   26 am
    55   26   27 am
    56   26   59 1
    57   27   28 2
    58   29   34 ar
    59   29   30 ar
    60   30   31 ar
    61   30   36 1
    62   31   32 ar
    63   31   60 1
    64   32   33 ar
    65   32   61 1
    66   33   34 ar
    67   33   62 1
    68   34   35 1
    69   37   63 1
@<TRIPOS>MOLECULE
CHEMBL181314
   54    57     0     0     0
SMALL
USER_CHARGES

@<TRIPOS>ATOM
      1 C1         -0.0519    1.4096    0.7071 C.3       1 <0>         0.0709
      2 N1         -0.0222   -0.0405    0.5011 N.am      1 <0>        -0.5065
      3 C2         -1.1944   -0.7196    0.2831 C.ar      1 <0>         0.4682
      4 C3         -1.1833   -2.1169    0.0823 C.ar      1 <0>        -0.2858
      5 C4          0.0378   -2.8290    0.1043 C.2       1 <0>         0.0400
      6 C5          1.2023   -2.1431    0.3225 C.2       1 <0>        -0.1759
      7 C6          1.1560   -0.6928    0.5220 C.2       1 <0>         0.5595
      8 O1          2.1880   -0.0740    0.7118 O.2       1 <0>        -0.5081
      9 C7          2.4982   -2.8605    0.3513 C.ar      1 <0>        -0.0130
     10 C8          2.9859   -3.3762    1.5531 C.ar      1 <0>         0.0093
     11 C9          4.1936   -4.0439    1.5757 C.ar      1 <0>        -0.1340
     12 C10         4.9230   -4.2029    0.4053 C.ar      1 <0>         0.1391
     13 C11         4.4417   -3.6911   -0.7920 C.ar      1 <0>        -0.1339
     14 C12         3.2318   -3.0276   -0.8242 C.ar      1 <0>         0.0093
     15 Cl1         2.6270   -2.3953   -2.3236 Cl        1 <0>        -0.0417
     16 O2          6.1117   -4.8609    0.4318 O.3       1 <0>        -0.4876
     17 Cl2         2.0750   -3.1775    3.0175 Cl        1 <0>        -0.0416
     18 C13        -2.4036   -2.7730   -0.1377 C.ar      1 <0>         0.2670
     19 N2         -3.5127   -2.0575   -0.1482 N.ar      1 <0>        -0.5652
     20 C14        -3.4852   -0.7434    0.0445 C.ar      1 <0>         0.6114
     21 N3         -2.3585   -0.0804    0.2560 N.ar      1 <0>        -0.5994
     22 N4         -4.6757   -0.0426    0.0231 N.pl3     1 <0>        -0.6176
     23 C15        -5.8910   -0.7301   -0.0815 C.ar      1 <0>         0.1003
     24 C16        -6.0358   -1.9788    0.5085 C.ar      1 <0>        -0.0662
     25 C17        -7.2347   -2.6562    0.4049 C.ar      1 <0>        -0.1384
     26 C18        -8.2942   -2.0896   -0.2883 C.ar      1 <0>         0.1329
     27 C19        -8.1504   -0.8422   -0.8779 C.ar      1 <0>        -0.1927
     28 C20        -6.9540   -0.1610   -0.7703 C.ar      1 <0>        -0.0966
     29 O3         -9.4743   -2.7575   -0.3903 O.3       1 <0>        -0.3102
     30 C21       -10.5226   -2.1149   -1.1184 C.3       1 <0>         0.0579
     31 C22       -11.7626   -3.0112   -1.1252 C.3       1 <0>        -0.0923
     32 C23       -12.8850   -2.3232   -1.9047 C.3       1 <0>        -0.1806
     33 C24       -14.1063   -3.2060   -1.9114 C.2       1 <0>         0.4908
     34 O4        -14.0813   -4.2855   -1.3451 O.co2     1 <0>        -0.6955
     35 O5        -15.1194   -2.8408   -2.4831 O.co2     1 <0>        -0.7047
     36 H1          0.9634    1.7759    0.8589 H         1 <0>         0.0992
     37 H2         -0.4851    1.8923   -0.1690 H         1 <0>         0.0796
     38 H3         -0.6561    1.6396    1.5846 H         1 <0>         0.0798
     39 H4          0.0517   -3.8981   -0.0484 H         1 <0>         0.1497
     40 H5          4.5719   -4.4428    2.5053 H         1 <0>         0.1494
     41 H6          5.0124   -3.8163   -1.7002 H         1 <0>         0.1493
     42 H7          6.0374   -5.8134    0.2823 H         1 <0>         0.3984
     43 H8         -2.4348   -3.8410   -0.2956 H         1 <0>         0.1877
     44 H9         -4.6696    0.9257    0.0805 H         1 <0>         0.4246
     45 H10        -5.2108   -2.4203    1.0479 H         1 <0>         0.1386
     46 H11        -7.3473   -3.6276    0.8633 H         1 <0>         0.1353
     47 H12        -8.9758   -0.4018   -1.4174 H         1 <0>         0.1347
     48 H13        -6.8437    0.8121   -1.2256 H         1 <0>         0.1262
     49 H14       -10.7644   -1.1638   -0.6440 H         1 <0>         0.0582
     50 H15       -10.1971   -1.9372   -2.1434 H         1 <0>         0.0583
     51 H16       -11.5208   -3.9623   -1.5996 H         1 <0>         0.0718
     52 H17       -12.0881   -3.1888   -0.1002 H         1 <0>         0.0717
     53 H18       -13.1268   -1.3721   -1.4303 H         1 <0>         0.0590
     54 H19       -12.5595   -2.1456   -2.9297 H         1 <0>         0.0591
@<TRIPOS>BOND
     1    1    2 1
     2    1   36 1
     3    1   37 1
     4    1   38 1
     5    2    7 am
     6    2    3 1
     7    3   21 ar
     8    3    4 ar
     9    4    5 1
    10    4   18 ar
    11    5    6 2
    12    5   39 1
    13    6    7 1
    14    6    9 1
    15    7    8 2
    16    9   14 ar
    17    9   10 ar
    18   10   11 ar
    19   10   17 1
    20   11   12 ar
    21   11   40 1
    22   12   13 ar
    23   12   16 1
    24   13   14 ar
    25   13   41 1
    26   14   15 1
    27   16   42 1
    28   18   19 ar
    29   18   43 1
    30   19   20 ar
    31   20   21 ar
    32   20   22 1
    33   22   23 1
    34   22   44 1
    35   23   28 ar
    36   23   24 ar
    37   24   25 ar
    38   24   45 1
    39   25   26 ar
    40   25   46 1
    41   26   27 ar
    42   26   29 1
    43   27   28 ar
    44   27   47 1
    45   28   48 1
    46   29   30 1
    47   30   31 1
    48   30   49 1
    49   30   50 1
    50   31   32 1
    51   31   51 1
    52   31   52 1
    53   32   33 1
    54   32   53 1
    55   32   54 1
    56   33   34 2
    57   33   35 1
@<TRIPOS>MOLECULE
CHEMBL453347
   64    69     0     0     0
SMALL
USER_CHARGES

@<TRIPOS>ATOM
      1 C1         -0.0178    1.4648    0.0101 C.3       1 <0>        -0.0461
      2 N1          0.0021   -0.0041    0.0020 N.4       1 <0>        -0.3884
      3 C2         -1.3761   -0.5122    0.0107 C.3       1 <0>        -0.0028
      4 C3         -1.3560   -2.0421   -0.0167 C.3       1 <0>         0.0254
      5 N2         -0.6244   -2.5407    1.1564 N.3       1 <0>        -0.5383
      6 C4          0.7499   -2.0201    1.1745 C.3       1 <0>         0.0201
      7 C5          0.7125   -0.4904    1.1921 C.3       1 <0>        -0.0029
      8 C6         -0.6316   -4.0091    1.1963 C.3       1 <0>         0.0576
      9 C7         -0.0856   -4.4853    2.5439 C.3       1 <0>        -0.1396
     10 C8         -0.0931   -6.0148    2.5855 C.3       1 <0>         0.1141
     11 N3          0.4297   -6.4708    3.8758 N.pl3     1 <0>        -0.5001
     12 C9          1.7646   -6.7282    4.1421 C.ar      1 <0>         0.1382
     13 C10         2.9083   -6.6449    3.3541 C.ar      1 <0>        -0.1286
     14 C11         4.1388   -6.9674    3.8844 C.ar      1 <0>        -0.0965
     15 C12         4.2526   -7.3789    5.2081 C.ar      1 <0>         0.0817
     16 C13         3.1275   -7.4681    6.0059 C.ar      1 <0>        -0.0733
     17 C14         1.8783   -7.1428    5.4778 C.ar      1 <0>        -0.0924
     18 C15         0.5172   -7.1291    6.0384 C.ar      1 <0>        -0.0353
     19 C16        -0.3374   -6.6993    5.0012 C.ar      1 <0>         0.1749
     20 C17        -1.7008   -6.5807    5.2350 C.ar      1 <0>        -0.1146
     21 C18        -2.2318   -6.8794    6.4883 C.ar      1 <0>         0.0698
     22 C19        -1.3906   -7.3032    7.5241 C.ar      1 <0>        -0.1611
     23 C20        -0.0079   -7.4348    7.2946 C.ar      1 <0>        -0.0757
     24 C21         0.5723   -7.8935    8.5714 C.2       1 <0>         0.5772
     25 O1          1.7494   -8.1115    8.7781 O.2       1 <0>        -0.4536
     26 N4         -0.4212   -8.0291    9.4683 N.am      1 <0>        -0.6796
     27 C22        -1.6064   -7.6910    8.9291 C.2       1 <0>         0.5780
     28 O2         -2.6778   -7.7130    9.5018 O.2       1 <0>        -0.4487
     29 C23        -3.6883   -6.7478    6.7251 C.ar      1 <0>        -0.0724
     30 C24        -4.3990   -7.7929    7.3148 C.ar      1 <0>        -0.0687
     31 C25        -5.7553   -7.6642    7.5332 C.ar      1 <0>        -0.1164
     32 C26        -6.4103   -6.5015    7.1685 C.ar      1 <0>        -0.1040
     33 C27        -5.7109   -5.4616    6.5826 C.ar      1 <0>        -0.1251
     34 C28        -4.3532   -5.5761    6.3644 C.ar      1 <0>        -0.0980
     35 O3          5.4731   -7.6945    5.7182 O.3       1 <0>        -0.4915
     36 H1          1.0047    1.8421    0.0024 H         1 <0>         0.1246
     37 H2         -0.5450    1.8259   -0.8730 H         1 <0>         0.1249
     38 H3         -0.5280    1.8163    0.9069 H         1 <0>         0.1234
     39 H4         -1.8832   -0.1716    0.9134 H         1 <0>         0.1380
     40 H5         -1.9060   -0.1400   -0.8661 H         1 <0>         0.1368
     41 H6         -2.3783   -2.4196    0.0047 H         1 <0>         0.1248
     42 H7         -0.8610   -2.3831   -0.9260 H         1 <0>         0.0617
     43 H8          1.2641   -2.3816    2.0650 H         1 <0>         0.1244
     44 H9          1.2796   -2.3607    0.2848 H         1 <0>         0.0620
     45 H10         1.7310   -0.1020    1.1912 H         1 <0>         0.1362
     46 H11         0.1947   -0.1499    2.0888 H         1 <0>         0.1378
     47 H12        -1.6519   -4.3710    1.0694 H         1 <0>         0.0936
     48 H13        -0.0057   -4.3975    0.3929 H         1 <0>         0.0514
     49 H14         0.9347   -4.1235    2.6709 H         1 <0>         0.0730
     50 H15        -0.7115   -4.0969    3.3473 H         1 <0>         0.0857
     51 H16        -1.1134   -6.3766    2.4585 H         1 <0>         0.0955
     52 H17         0.5328   -6.4032    1.7821 H         1 <0>         0.0935
     53 H18         2.8316   -6.3273    2.3247 H         1 <0>         0.1277
     54 H19         5.0222   -6.9004    3.2667 H         1 <0>         0.1393
     55 H20         3.2152   -7.7882    7.0336 H         1 <0>         0.1492
     56 H21        -2.3545   -6.2543    4.4398 H         1 <0>         0.1428
     57 H22        -0.2976   -8.3196   10.3855 H         1 <0>         0.4336
     58 H23        -3.8888   -8.7012    7.5997 H         1 <0>         0.1224
     59 H24        -6.3068   -8.4730    7.9895 H         1 <0>         0.1277
     60 H25        -7.4721   -6.4055    7.3414 H         1 <0>         0.1255
     61 H26        -6.2277   -4.5565    6.2997 H         1 <0>         0.1250
     62 H27        -3.8074   -4.7618    5.9114 H         1 <0>         0.1218
     63 H28         5.9381   -6.9464    6.1171 H         1 <0>         0.3919
     64 H29         0.4748   -0.3293   -0.8280 H         1 <0>         0.4226
@<TRIPOS>BOND
     1    1    2 1
     2    1   36 1
     3    1   37 1
     4    1   38 1
     5    2    7 1
     6    2    3 1
     7    2   64 1
     8    3    4 1
     9    3   39 1
    10    3   40 1
    11    4    5 1
    12    4   41 1
    13    4   42 1
    14    5    6 1
    15    5    8 1
    16    6    7 1
    17    6   43 1
    18    6   44 1
    19    7   45 1
    20    7   46 1
    21    8    9 1
    22    8   47 1
    23    8   48 1
    24    9   10 1
    25    9   49 1
    26    9   50 1
    27   10   11 1
    28   10   51 1
    29   10   52 1
    30   11   19 1
    31   11   12 1
    32   12   17 ar
    33   12   13 ar
    34   13   14 ar
    35   13   53 1
    36   14   15 ar
    37   14   54 1
    38   15   16 ar
    39   15   35 1
    40   16   17 ar
    41   16   55 1
    42   17   18 1
    43   18   23 ar
    44   18   19 ar
    45   19   20 ar
    46   20   21 ar
    47   20   56 1
    48   21   22 ar
    49   21   29 1
    50   22   27 1
    51   22   23 ar
    52   23   24 1
    53   24   25 2
    54   24   26 am
    55   26   27 am
    56   26   57 1
    57   27   28 2
    58   29   34 ar
    59   29   30 ar
    60   30   31 ar
    61   30   58 1
    62   31   32 ar
    63   31   59 1
    64   32   33 ar
    65   32   60 1
    66   33   34 ar
    67   33   61 1
    68   34   62 1
    69   35   63 1
@<TRIPOS>MOLECULE
CHEMBL453347
   64    69     0     0     0
SMALL
USER_CHARGES

@<TRIPOS>ATOM
      1 C1         -0.0178    1.4648    0.0101 C.3       1 <0>         0.0191
      2 N1          0.0021   -0.0041    0.0020 N.3       1 <0>        -0.5432
      3 C2         -1.3607   -0.5489   -0.0764 C.3       1 <0>         0.0236
      4 C3         -1.2932   -2.0762   -0.1426 C.3       1 <0>        -0.0019
      5 N2         -0.6107   -2.5886    1.0529 N.4       1 <0>        -0.3862
      6 C4          0.7570   -2.0553    1.1043 C.3       1 <0>        -0.0072
      7 C5          0.7065   -0.5278    1.1808 C.3       1 <0>         0.0246
      8 C6         -0.5621   -4.0557    0.9977 C.3       1 <0>        -0.0054
      9 C7          0.0360   -4.5955    2.2984 C.3       1 <0>        -0.1758
     10 C8          0.0866   -6.1236    2.2409 C.3       1 <0>         0.1212
     11 N3          0.6594   -6.6404    3.4863 N.pl3     1 <0>        -0.5039
     12 C9          2.0094   -6.8623    3.7039 C.ar      1 <0>         0.1326
     13 C10         3.1284   -6.6844    2.8964 C.ar      1 <0>        -0.1287
     14 C11         4.3833   -6.9920    3.3757 C.ar      1 <0>        -0.0950
     15 C12         4.5467   -7.4825    4.6669 C.ar      1 <0>         0.0875
     16 C13         3.4467   -7.6662    5.4833 C.ar      1 <0>        -0.0738
     17 C14         2.1731   -7.3567    5.0070 C.ar      1 <0>        -0.0896
     18 C15         0.8273   -7.4317    5.5989 C.ar      1 <0>        -0.0328
     19 C16        -0.0693   -6.9701    4.6121 C.ar      1 <0>         0.1706
     20 C17        -1.4296   -6.9198    4.8851 C.ar      1 <0>        -0.1182
     21 C18        -1.9166   -7.3184    6.1284 C.ar      1 <0>         0.0721
     22 C19        -1.0336   -7.7745    7.1146 C.ar      1 <0>        -0.1575
     23 C20         0.3467   -7.8374    6.8446 C.ar      1 <0>        -0.0736
     24 C21         0.9764   -8.3537    8.0750 C.2       1 <0>         0.5762
     25 O1          2.1658   -8.5386    8.2395 O.2       1 <0>        -0.4510
     26 N4          0.0123   -8.5850    8.9843 N.am      1 <0>        -0.6788
     27 C22        -1.1983   -8.2594    8.4961 C.2       1 <0>         0.5768
     28 O2         -2.2530   -8.3597    9.0911 O.2       1 <0>        -0.4460
     29 C23        -3.3703   -7.2590    6.4073 C.ar      1 <0>        -0.0751
     30 C24        -4.0260   -8.3665    6.9445 C.ar      1 <0>        -0.0679
     31 C25        -5.3801   -8.3049    7.2025 C.ar      1 <0>        -0.1147
     32 C26        -6.0872   -7.1476    6.9293 C.ar      1 <0>        -0.1020
     33 C27        -5.4425   -6.0459    6.3960 C.ar      1 <0>        -0.1251
     34 C28        -4.0876   -6.0934    6.1390 C.ar      1 <0>        -0.0994
     35 O3          5.7909   -7.7824    5.1268 O.3       1 <0>        -0.4908
     36 H1          1.0047    1.8421    0.0024 H         1 <0>         0.0849
     37 H2         -0.5450    1.8259   -0.8730 H         1 <0>         0.0847
     38 H3         -0.5280    1.8163    0.9069 H         1 <0>         0.0400
     39 H4         -1.9242   -0.2477    0.8067 H         1 <0>         0.0608
     40 H5         -1.8539   -0.1676   -0.9705 H         1 <0>         0.1251
     41 H6         -2.3035   -2.4830   -0.1865 H         1 <0>         0.1373
     42 H7         -0.7413   -2.3773   -1.0330 H         1 <0>         0.1392
     43 H8          1.2666   -2.4465    1.9848 H         1 <0>         0.1354
     44 H9          1.2983   -2.3564    0.2075 H         1 <0>         0.1397
     45 H10         1.7215   -0.1310    1.2040 H         1 <0>         0.1244
     46 H11         0.1771   -0.2262    2.0846 H         1 <0>         0.0605
     47 H12        -1.5711   -4.4482    0.8715 H         1 <0>         0.1367
     48 H13         0.0569   -4.3674    0.1563 H         1 <0>         0.1362
     49 H14         1.0451   -4.2031    2.4246 H         1 <0>         0.0969
     50 H15        -0.5829   -4.2839    3.1397 H         1 <0>         0.0954
     51 H16        -0.9224   -6.5160    2.1146 H         1 <0>         0.1023
     52 H17         0.7056   -6.4352    1.3995 H         1 <0>         0.1037
     53 H18         3.0133   -6.3048    1.8919 H         1 <0>         0.1288
     54 H19         5.2473   -6.8513    2.7432 H         1 <0>         0.1417
     55 H20         3.5729   -8.0477    6.4858 H         1 <0>         0.1504
     56 H21        -2.1155   -6.5689    4.1282 H         1 <0>         0.1414
     57 H22         0.1703   -8.9284    9.8776 H         1 <0>         0.4349
     58 H23        -3.4751   -9.2706    7.1578 H         1 <0>         0.1230
     59 H24        -5.8890   -9.1620    7.6182 H         1 <0>         0.1290
     60 H25        -7.1470   -7.1042    7.1330 H         1 <0>         0.1268
     61 H26        -5.9999   -5.1454    6.1845 H         1 <0>         0.1254
     62 H27        -3.5844   -5.2311    5.7271 H         1 <0>         0.1195
     63 H28         6.2378   -7.0437    5.5623 H         1 <0>         0.3942
     64 H29        -1.1152   -2.2999    1.8777 H         1 <0>         0.4211
@<TRIPOS>BOND
     1    1    2 1
     2    1   36 1
     3    1   37 1
     4    1   38 1
     5    2    7 1
     6    2    3 1
     7    3    4 1
     8    3   39 1
     9    3   40 1
    10    4    5 1
    11    4   41 1
    12    4   42 1
    13    5    6 1
    14    5    8 1
    15    5   64 1
    16    6    7 1
    17    6   43 1
    18    6   44 1
    19    7   45 1
    20    7   46 1
    21    8    9 1
    22    8   47 1
    23    8   48 1
    24    9   10 1
    25    9   49 1
    26    9   50 1
    27   10   11 1
    28   10   51 1
    29   10   52 1
    30   11   19 1
    31   11   12 1
    32   12   17 ar
    33   12   13 ar
    34   13   14 ar
    35   13   53 1
    36   14   15 ar
    37   14   54 1
    38   15   16 ar
    39   15   35 1
    40   16   17 ar
    41   16   55 1
    42   17   18 1
    43   18   23 ar
    44   18   19 ar
    45   19   20 ar
    46   20   21 ar
    47   20   56 1
    48   21   22 ar
    49   21   29 1
    50   22   27 1
    51   22   23 ar
    52   23   24 1
    53   24   25 2
    54   24   26 am
    55   26   27 am
    56   26   57 1
    57   27   28 2
    58   29   34 ar
    59   29   30 ar
    60   30   31 ar
    61   30   58 1
    62   31   32 ar
    63   31   59 1
    64   32   33 ar
    65   32   60 1
    66   33   34 ar
    67   33   61 1
    68   34   62 1
    69   35   63 1
@<TRIPOS>MOLECULE
CHEMBL519212
   61    66     0     0     0
SMALL
USER_CHARGES

@<TRIPOS>ATOM
      1 C1         -0.0166    1.3753    0.0096 C.ar      1 <0>        -0.1164
      2 C2          1.1702    2.0869    0.0021 C.ar      1 <0>        -0.0961
      3 C3          2.3823    1.4213   -0.0135 C.ar      1 <0>        -0.1088
      4 C4          2.4147    0.0403   -0.0213 C.ar      1 <0>        -0.0001
      5 C5          1.2208   -0.6823   -0.0133 C.ar      1 <0>        -0.0537
      6 C6          0.0021   -0.0041    0.0020 C.ar      1 <0>        -0.0866
      7 C7          1.2476   -2.1633   -0.0220 C.ar      1 <0>         0.0574
      8 C8          0.7443   -2.8623   -1.1176 C.ar      1 <0>        -0.1052
      9 C9          0.7641   -4.2503   -1.1370 C.ar      1 <0>         0.1759
     10 C10         1.2978   -4.9603   -0.0406 C.ar      1 <0>        -0.0295
     11 C11         1.1711   -6.3898   -0.3691 C.ar      1 <0>        -0.0958
     12 C12         1.5141   -7.5614    0.3052 C.ar      1 <0>        -0.0736
     13 C13         1.2616   -8.7878   -0.2800 C.ar      1 <0>         0.0774
     14 C14         0.6683   -8.8531   -1.5363 C.ar      1 <0>        -0.0954
     15 C15         0.3265   -7.7006   -2.2102 C.ar      1 <0>        -0.1248
     16 C16         0.5722   -6.4571   -1.6364 C.ar      1 <0>         0.1432
     17 N1          0.3368   -5.1656   -2.0786 N.pl3     1 <0>        -0.4960
     18 C17        -0.2788   -4.8200   -3.3623 C.3       1 <0>         0.1122
     19 C18         0.8102   -4.6727   -4.4269 C.3       1 <0>        -0.1269
     20 C19         0.1673   -4.3117   -5.7675 C.3       1 <0>        -0.1370
     21 C20         1.2399   -4.1666   -6.8161 C.2       1 <0>         0.5166
     22 O1          2.4039   -4.3353   -6.5203 O.2       1 <0>        -0.5314
     23 N2          0.9057   -3.8494   -8.0826 N.am      1 <0>        -0.6191
     24 C21        -0.4991   -3.6339   -8.4640 C.3       1 <0>         0.0706
     25 C22        -0.5979   -2.2992   -9.2116 C.3       1 <0>         0.0454
     26 O2          0.3581   -2.2833  -10.2745 O.3       1 <0>        -0.3772
     27 C23         1.7175   -2.3696   -9.8403 C.3       1 <0>         0.0473
     28 C24         1.9353   -3.7023   -9.1236 C.3       1 <0>         0.0751
     29 O3          1.5943   -9.9330    0.3737 O.3       1 <0>        -0.4929
     30 C25         1.8044   -4.2673    1.0595 C.ar      1 <0>        -0.0800
     31 C26         1.7840   -2.8596    1.0679 C.ar      1 <0>        -0.1522
     32 C27         2.3884   -2.4533    2.3485 C.2       1 <0>         0.5795
     33 O4          2.5449   -1.3094    2.7274 O.2       1 <0>        -0.4485
     34 N3          2.7379   -3.5599    3.0287 N.am      1 <0>        -0.6807
     35 C28         2.4184   -4.6701    2.3393 C.2       1 <0>         0.5792
     36 O5          2.6139   -5.8124    2.7038 O.2       1 <0>        -0.4564
     37 Cl1         3.9368   -0.7943   -0.0415 Cl        1 <0>        -0.0600
     38 H1         -0.9598    1.9012    0.0260 H         1 <0>         0.1332
     39 H2          1.1498    3.1667    0.0081 H         1 <0>         0.1345
     40 H3          3.3052    1.9822   -0.0201 H         1 <0>         0.1367
     41 H4         -0.9252   -0.5577    0.0083 H         1 <0>         0.1343
     42 H5          0.3356   -2.3202   -1.9575 H         1 <0>         0.1441
     43 H6          1.9754   -7.5105    1.2804 H         1 <0>         0.1474
     44 H7          0.4742   -9.8149   -1.9876 H         1 <0>         0.1392
     45 H8         -0.1334   -7.7627   -3.1854 H         1 <0>         0.1317
     46 H9         -0.9710   -5.6085   -3.6574 H         1 <0>         0.0957
     47 H10        -0.8204   -3.8791   -3.2640 H         1 <0>         0.0938
     48 H11         1.5024   -3.8841   -4.1319 H         1 <0>         0.0806
     49 H12         1.3518   -5.6135   -4.5253 H         1 <0>         0.0817
     50 H13        -0.5249   -5.1003   -6.0626 H         1 <0>         0.0994
     51 H14        -0.3743   -3.3709   -5.6692 H         1 <0>         0.0983
     52 H15        -0.8317   -4.4438   -9.1132 H         1 <0>         0.0818
     53 H16        -1.1213   -3.6006   -7.5696 H         1 <0>         0.0962
     54 H17        -1.6010   -2.1855   -9.6225 H         1 <0>         0.1095
     55 H18        -0.3906   -1.4800   -8.5231 H         1 <0>         0.0573
     56 H19         2.3801   -2.3064  -10.7035 H         1 <0>         0.1099
     57 H20         1.9332   -1.5506   -9.1541 H         1 <0>         0.0568
     58 H21         2.9245   -3.7143   -8.6659 H         1 <0>         0.1030
     59 H22         1.8520   -4.5193   -9.8404 H         1 <0>         0.0777
     60 H23         0.8923  -10.2803    0.9408 H         1 <0>         0.3899
     61 H24         3.1568   -3.5579    3.9036 H         1 <0>         0.4314
@<TRIPOS>BOND
     1    1    6 ar
     2    1    2 ar
     3    1   38 1
     4    2    3 ar
     5    2   39 1
     6    3    4 ar
     7    3   40 1
     8    4    5 ar
     9    4   37 1
    10    5    6 ar
    11    5    7 1
    12    6   41 1
    13    7   31 ar
    14    7    8 ar
    15    8    9 ar
    16    8   42 1
    17    9   17 1
    18    9   10 ar
    19   10   11 1
    20   10   30 ar
    21   11   16 ar
    22   11   12 ar
    23   12   13 ar
    24   12   43 1
    25   13   14 ar
    26   13   29 1
    27   14   15 ar
    28   14   44 1
    29   15   16 ar
    30   15   45 1
    31   16   17 1
    32   17   18 1
    33   18   19 1
    34   18   46 1
    35   18   47 1
    36   19   20 1
    37   19   48 1
    38   19   49 1
    39   20   21 1
    40   20   50 1
    41   20   51 1
    42   21   22 2
    43   21   23 am
    44   23   28 1
    45   23   24 1
    46   24   25 1
    47   24   52 1
    48   24   53 1
    49   25   26 1
    50   25   54 1
    51   25   55 1
    52   26   27 1
    53   27   28 1
    54   27   56 1
    55   27   57 1
    56   28   58 1
    57   28   59 1
    58   29   60 1
    59   30   35 1
    60   30   31 ar
    61   31   32 1
    62   32   33 2
    63   32   34 am
    64   34   35 am
    65   34   61 1
    66   35   36 2
@<TRIPOS>MOLECULE
CHEMBL483611
   61    66     0     0     0
SMALL
USER_CHARGES

@<TRIPOS>ATOM
      1 C1         -0.0167    1.3790    0.0096 C.ar      1 <0>        -0.0837
      2 C2          1.1680    2.0931    0.0021 C.ar      1 <0>        -0.1045
      3 C3          2.3785    1.4284   -0.0135 C.ar      1 <0>        -0.0036
      4 C4          2.4047    0.0329   -0.0212 C.ar      1 <0>        -0.0410
      5 C5          1.2056   -0.6814   -0.0131 C.ar      1 <0>        -0.0040
      6 C6          0.0021   -0.0041    0.0020 C.ar      1 <0>        -0.1043
      7 Cl1         1.2269   -2.4173   -0.0233 Cl        1 <0>        -0.0458
      8 C7          3.6990   -0.6866   -0.0385 C.ar      1 <0>         0.0550
      9 C8          4.3172   -1.0365    1.1608 C.ar      1 <0>        -0.0973
     10 C9          5.5303   -1.7113    1.1570 C.ar      1 <0>         0.1778
     11 C10         6.1436   -2.0466   -0.0687 C.ar      1 <0>        -0.0258
     12 C11         7.3954   -2.7439    0.2692 C.ar      1 <0>        -0.0962
     13 C12         8.4152   -3.3067   -0.4977 C.ar      1 <0>        -0.0730
     14 C13         9.4915   -3.9072    0.1280 C.ar      1 <0>         0.0773
     15 C14         9.5569   -3.9500    1.5167 C.ar      1 <0>        -0.0948
     16 C15         8.5535   -3.3970    2.2825 C.ar      1 <0>        -0.1247
     17 C16         7.4627   -2.7879    1.6702 C.ar      1 <0>         0.1442
     18 N1          6.3366   -2.1645    2.1825 N.pl3     1 <0>        -0.4953
     19 C17         6.0430   -2.0082    3.6092 C.3       1 <0>         0.1116
     20 C18         5.2400   -3.2147    4.0998 C.3       1 <0>        -0.1266
     21 C19         4.9333   -3.0514    5.5898 C.3       1 <0>        -0.1373
     22 C20         4.1424   -4.2397    6.0730 C.2       1 <0>         0.5168
     23 O1          3.8525   -5.1296    5.3015 O.2       1 <0>        -0.5314
     24 N2          3.7571   -4.3137    7.3624 N.am      1 <0>        -0.6191
     25 C21         4.0916   -3.2435    8.3155 C.3       1 <0>         0.0705
     26 C22         2.8090   -2.8270    9.0444 C.3       1 <0>         0.0454
     27 O2          2.1791   -3.9888    9.5897 O.3       1 <0>        -0.3771
     28 C23         1.7602   -4.9418    8.6099 C.3       1 <0>         0.0474
     29 C24         2.9842   -5.4639    7.8573 C.3       1 <0>         0.0752
     30 O3         10.4881   -4.4577   -0.6157 O.3       1 <0>        -0.4928
     31 C25         5.5309   -1.6996   -1.2735 C.ar      1 <0>        -0.0794
     32 C26         4.2979   -1.0200   -1.2595 C.ar      1 <0>        -0.1499
     33 C27         3.9316   -0.8164   -2.6717 C.2       1 <0>         0.5805
     34 O4          2.9288   -0.2579   -3.0706 O.2       1 <0>        -0.4522
     35 N3          4.8926   -1.3513   -3.4461 N.am      1 <0>        -0.6800
     36 C28         5.8745   -1.8840   -2.6965 C.2       1 <0>         0.5799
     37 O5          6.8706   -2.4357   -3.1201 O.2       1 <0>        -0.4548
     38 Cl2         3.8641    2.3266   -0.0240 Cl        1 <0>        -0.0482
     39 H1         -0.9605    1.9037    0.0260 H         1 <0>         0.1459
     40 H2          1.1462    3.1729    0.0082 H         1 <0>         0.1445
     41 H3         -0.9265   -0.5555    0.0083 H         1 <0>         0.1445
     42 H4          3.8492   -0.7804    2.0998 H         1 <0>         0.1432
     43 H5          8.3641   -3.2737   -1.5760 H         1 <0>         0.1475
     44 H6         10.4009   -4.4209    1.9987 H         1 <0>         0.1393
     45 H7          8.6140   -3.4364    3.3601 H         1 <0>         0.1319
     46 H8          6.9769   -1.9421    4.1673 H         1 <0>         0.0961
     47 H9          5.4626   -1.0985    3.7632 H         1 <0>         0.0938
     48 H10         4.3060   -3.2807    3.5417 H         1 <0>         0.0807
     49 H11         5.8204   -4.1243    3.9458 H         1 <0>         0.0819
     50 H12         5.8672   -2.9854    6.1479 H         1 <0>         0.0994
     51 H13         4.3529   -2.1418    5.7438 H         1 <0>         0.0983
     52 H14         4.8217   -3.6098    9.0372 H         1 <0>         0.0819
     53 H15         4.5026   -2.3888    7.7783 H         1 <0>         0.0962
     54 H16         3.0562   -2.1351    9.8496 H         1 <0>         0.1095
     55 H17         2.1319   -2.3418    8.3415 H         1 <0>         0.0573
     56 H18         1.2528   -5.7713    9.1024 H         1 <0>         0.1099
     57 H19         1.0793   -4.4642    7.9053 H         1 <0>         0.0567
     58 H20         2.6623   -6.0789    7.0169 H         1 <0>         0.1030
     59 H21         3.6009   -6.0575    8.5322 H         1 <0>         0.0776
     60 H22        11.2054   -3.8447   -0.8274 H         1 <0>         0.3900
     61 H23         4.8830   -1.3462   -4.4161 H         1 <0>         0.4319
@<TRIPOS>BOND
     1    1    6 ar
     2    1    2 ar
     3    1   39 1
     4    2    3 ar
     5    2   40 1
     6    3    4 ar
     7    3   38 1
     8    4    5 ar
     9    4    8 1
    10    5    6 ar
    11    5    7 1
    12    6   41 1
    13    8   32 ar
    14    8    9 ar
    15    9   10 ar
    16    9   42 1
    17   10   18 1
    18   10   11 ar
    19   11   12 1
    20   11   31 ar
    21   12   17 ar
    22   12   13 ar
    23   13   14 ar
    24   13   43 1
    25   14   15 ar
    26   14   30 1
    27   15   16 ar
    28   15   44 1
    29   16   17 ar
    30   16   45 1
    31   17   18 1
    32   18   19 1
    33   19   20 1
    34   19   46 1
    35   19   47 1
    36   20   21 1
    37   20   48 1
    38   20   49 1
    39   21   22 1
    40   21   50 1
    41   21   51 1
    42   22   23 2
    43   22   24 am
    44   24   29 1
    45   24   25 1
    46   25   26 1
    47   25   52 1
    48   25   53 1
    49   26   27 1
    50   26   54 1
    51   26   55 1
    52   27   28 1
    53   28   29 1
    54   28   56 1
    55   28   57 1
    56   29   58 1
    57   29   59 1
    58   30   60 1
    59   31   36 1
    60   31   32 ar
    61   32   33 1
    62   33   34 2
    63   33   35 am
    64   35   36 am
    65   35   61 1
    66   36   37 2
@<TRIPOS>MOLECULE
CHEMBL483786
   55    60     0     0     0
SMALL
USER_CHARGES

@<TRIPOS>ATOM
      1 C1         -0.0167    1.3790    0.0096 C.ar      1 <0>        -0.0832
      2 C2          1.1680    2.0931    0.0021 C.ar      1 <0>        -0.1041
      3 C3          2.3785    1.4284   -0.0135 C.ar      1 <0>        -0.0035
      4 C4          2.4047    0.0329   -0.0212 C.ar      1 <0>        -0.0420
      5 C5          1.2056   -0.6814   -0.0131 C.ar      1 <0>        -0.0041
      6 C6          0.0021   -0.0041    0.0020 C.ar      1 <0>        -0.1041
      7 Cl1         1.2269   -2.4173   -0.0233 Cl        1 <0>        -0.0467
      8 C7          3.6990   -0.6866   -0.0385 C.ar      1 <0>         0.0557
      9 C8          4.3172   -1.0365    1.1608 C.ar      1 <0>        -0.0979
     10 C9          5.5303   -1.7113    1.1570 C.ar      1 <0>         0.1768
     11 C10         6.1436   -2.0466   -0.0687 C.ar      1 <0>        -0.0254
     12 C11         7.3954   -2.7439    0.2692 C.ar      1 <0>        -0.0955
     13 C12         8.4152   -3.3067   -0.4977 C.ar      1 <0>        -0.0730
     14 C13         9.4915   -3.9072    0.1280 C.ar      1 <0>         0.0784
     15 C14         9.5569   -3.9500    1.5167 C.ar      1 <0>        -0.0947
     16 C15         8.5535   -3.3970    2.2825 C.ar      1 <0>        -0.1252
     17 C16         7.4627   -2.7879    1.6702 C.ar      1 <0>         0.1431
     18 N1          6.3366   -2.1645    2.1825 N.pl3     1 <0>        -0.4965
     19 C17         6.0430   -2.0082    3.6092 C.3       1 <0>         0.1127
     20 C18         5.2400   -3.2147    4.0998 C.3       1 <0>        -0.1322
     21 C19         4.9333   -3.0514    5.5898 C.3       1 <0>        -0.1411
     22 C20         4.1424   -4.2397    6.0730 C.2       1 <0>         0.5312
     23 O1          3.8536   -5.1262    5.3045 O.2       1 <0>        -0.4604
     24 N2          3.7571   -4.3137    7.3624 N.am      1 <0>        -0.4719
     25 C21         3.0402   -5.3325    7.9463 C.2       1 <0>        -0.0299
     26 C22         2.8770   -5.0014    9.2390 C.2       1 <0>        -0.0146
     27 N3          3.4728   -3.8165    9.4502 N.2       1 <0>        -0.4680
     28 C23         4.0085   -3.3953    8.3394 C.2       1 <0>         0.2059
     29 O2         10.4881   -4.4577   -0.6157 O.3       1 <0>        -0.4928
     30 C24         5.5309   -1.6996   -1.2735 C.ar      1 <0>        -0.0792
     31 C25         4.2979   -1.0200   -1.2595 C.ar      1 <0>        -0.1487
     32 C26         3.9316   -0.8164   -2.6717 C.2       1 <0>         0.5802
     33 O3          2.9288   -0.2579   -3.0706 O.2       1 <0>        -0.4513
     34 N4          4.8926   -1.3513   -3.4461 N.am      1 <0>        -0.6798
     35 C27         5.8745   -1.8840   -2.6965 C.2       1 <0>         0.5797
     36 O4          6.8706   -2.4357   -3.1201 O.2       1 <0>        -0.4545
     37 Cl2         3.8641    2.3266   -0.0240 Cl        1 <0>        -0.0478
     38 H1         -0.9605    1.9037    0.0260 H         1 <0>         0.1462
     39 H2          1.1462    3.1729    0.0082 H         1 <0>         0.1449
     40 H3         -0.9265   -0.5555    0.0083 H         1 <0>         0.1446
     41 H4          3.8492   -0.7804    2.0998 H         1 <0>         0.1436
     42 H5          8.3641   -3.2737   -1.5760 H         1 <0>         0.1478
     43 H6         10.4009   -4.4209    1.9987 H         1 <0>         0.1397
     44 H7          8.6140   -3.4364    3.3601 H         1 <0>         0.1321
     45 H8          6.9769   -1.9421    4.1673 H         1 <0>         0.0990
     46 H9          5.4626   -1.0985    3.7632 H         1 <0>         0.0969
     47 H10         4.3060   -3.2807    3.5417 H         1 <0>         0.0841
     48 H11         5.8204   -4.1243    3.9458 H         1 <0>         0.0851
     49 H12         5.8672   -2.9854    6.1479 H         1 <0>         0.1149
     50 H13         4.3529   -2.1418    5.7438 H         1 <0>         0.1147
     51 H14         2.6780   -6.2260    7.4597 H         1 <0>         0.1854
     52 H15         2.3558   -5.5881    9.9809 H         1 <0>         0.1820
     53 H16         4.5569   -2.4736    8.2131 H         1 <0>         0.2203
     54 H17        11.2054   -3.8447   -0.8274 H         1 <0>         0.3906
     55 H18         4.8830   -1.3462   -4.4161 H         1 <0>         0.4322
@<TRIPOS>BOND
     1    1    6 ar
     2    1    2 ar
     3    1   38 1
     4    2    3 ar
     5    2   39 1
     6    3    4 ar
     7    3   37 1
     8    4    5 ar
     9    4    8 1
    10    5    6 ar
    11    5    7 1
    12    6   40 1
    13    8   31 ar
    14    8    9 ar
    15    9   10 ar
    16    9   41 1
    17   10   18 1
    18   10   11 ar
    19   11   12 1
    20   11   30 ar
    21   12   17 ar
    22   12   13 ar
    23   13   14 ar
    24   13   42 1
    25   14   15 ar
    26   14   29 1
    27   15   16 ar
    28   15   43 1
    29   16   17 ar
    30   16   44 1
    31   17   18 1
    32   18   19 1
    33   19   20 1
    34   19   45 1
    35   19   46 1
    36   20   21 1
    37   20   47 1
    38   20   48 1
    39   21   22 1
    40   21   49 1
    41   21   50 1
    42   22   23 2
    43   22   24 am
    44   24   28 1
    45   24   25 1
    46   25   26 2
    47   25   51 1
    48   26   27 1
    49   26   52 1
    50   27   28 2
    51   28   53 1
    52   29   54 1
    53   30   35 1
    54   30   31 ar
    55   31   32 1
    56   32   33 2
    57   32   34 am
    58   34   35 am
    59   34   55 1
    60   35   36 2
@<TRIPOS>MOLECULE
CHEMBL483953
   54    58     0     0     0
SMALL
USER_CHARGES

@<TRIPOS>ATOM
      1 C1         -0.0178    1.4648    0.0101 C.3       1 <0>        -0.0461
      2 N1          0.0021   -0.0041    0.0020 N.4       1 <0>        -0.3884
      3 C2         -1.3761   -0.5122    0.0107 C.3       1 <0>        -0.0028
      4 C3         -1.3560   -2.0421   -0.0167 C.3       1 <0>         0.0255
      5 N2         -0.6244   -2.5407    1.1564 N.3       1 <0>        -0.5386
      6 C4          0.7499   -2.0201    1.1745 C.3       1 <0>         0.0202
      7 C5          0.7125   -0.4904    1.1921 C.3       1 <0>        -0.0029
      8 C6         -0.6316   -4.0091    1.1963 C.3       1 <0>         0.0576
      9 C7         -0.0856   -4.4853    2.5439 C.3       1 <0>        -0.1396
     10 C8         -0.0931   -6.0148    2.5855 C.3       1 <0>         0.1144
     11 N3          0.4297   -6.4708    3.8758 N.pl3     1 <0>        -0.5000
     12 C9          1.7647   -6.7282    4.1419 C.ar      1 <0>         0.1367
     13 C10         2.9086   -6.6446    3.3543 C.ar      1 <0>        -0.1285
     14 C11         4.1389   -6.9672    3.8847 C.ar      1 <0>        -0.0968
     15 C12         4.2524   -7.3782    5.2086 C.ar      1 <0>         0.0818
     16 C13         3.1270   -7.4667    6.0062 C.ar      1 <0>        -0.0735
     17 C14         1.8781   -7.1427    5.4776 C.ar      1 <0>        -0.0928
     18 C15         0.5164   -7.1286    6.0370 C.ar      1 <0>        -0.0355
     19 C16        -0.3369   -6.6991    5.0003 C.ar      1 <0>         0.1702
     20 C17        -1.7030   -6.5816    5.2377 C.ar      1 <0>        -0.1228
     21 C18        -2.2288   -6.8786    6.4797 C.ar      1 <0>        -0.0092
     22 C19        -1.3990   -7.2997    7.5115 C.ar      1 <0>        -0.1667
     23 C20        -0.0140   -7.4328    7.2907 C.ar      1 <0>        -0.0797
     24 C21         0.5582   -7.8913    8.5709 C.2       1 <0>         0.5764
     25 O1          1.7339   -8.1109    8.7838 O.2       1 <0>        -0.4543
     26 N4         -0.4396   -8.0249    9.4631 N.am      1 <0>        -0.6797
     27 C22        -1.6224   -7.6877    8.9182 C.2       1 <0>         0.5808
     28 O2         -2.6961   -7.7083    9.4860 O.2       1 <0>        -0.4582
     29 O3          5.4727   -7.6939    5.7191 O.3       1 <0>        -0.4915
     30 H1          1.0047    1.8421    0.0024 H         1 <0>         0.1246
     31 H2         -0.5450    1.8259   -0.8730 H         1 <0>         0.1249
     32 H3         -0.5280    1.8163    0.9069 H         1 <0>         0.1235
     33 H4         -1.8832   -0.1716    0.9134 H         1 <0>         0.1380
     34 H5         -1.9060   -0.1400   -0.8661 H         1 <0>         0.1369
     35 H6         -2.3783   -2.4196    0.0047 H         1 <0>         0.1248
     36 H7         -0.8610   -2.3831   -0.9260 H         1 <0>         0.0617
     37 H8          1.2641   -2.3816    2.0650 H         1 <0>         0.1243
     38 H9          1.2796   -2.3607    0.2848 H         1 <0>         0.0620
     39 H10         1.7310   -0.1020    1.1912 H         1 <0>         0.1362
     40 H11         0.1947   -0.1499    2.0888 H         1 <0>         0.1378
     41 H12        -1.6519   -4.3710    1.0694 H         1 <0>         0.0936
     42 H13        -0.0057   -4.3975    0.3929 H         1 <0>         0.0513
     43 H14         0.9347   -4.1235    2.6709 H         1 <0>         0.0726
     44 H15        -0.7115   -4.0969    3.3473 H         1 <0>         0.0858
     45 H16        -1.1134   -6.3766    2.4585 H         1 <0>         0.0958
     46 H17         0.5328   -6.4032    1.7821 H         1 <0>         0.0930
     47 H18         2.8321   -6.3266    2.3250 H         1 <0>         0.1276
     48 H19         5.0224   -6.9006    3.2671 H         1 <0>         0.1394
     49 H20         3.2146   -7.7862    7.0341 H         1 <0>         0.1488
     50 H21        -2.3580   -6.2550    4.4435 H         1 <0>         0.1417
     51 H22        -3.2909   -6.7827    6.6500 H         1 <0>         0.1517
     52 H23        -0.3204   -8.3149   10.3810 H         1 <0>         0.4335
     53 H24         5.9378   -6.9458    6.1177 H         1 <0>         0.3919
     54 H25         0.4748   -0.3293   -0.8280 H         1 <0>         0.4226
@<TRIPOS>BOND
     1    1    2 1
     2    1   30 1
     3    1   31 1
     4    1   32 1
     5    2    7 1
     6    2    3 1
     7    2   54 1
     8    3    4 1
     9    3   33 1
    10    3   34 1
    11    4    5 1
    12    4   35 1
    13    4   36 1
    14    5    6 1
    15    5    8 1
    16    6    7 1
    17    6   37 1
    18    6   38 1
    19    7   39 1
    20    7   40 1
    21    8    9 1
    22    8   41 1
    23    8   42 1
    24    9   10 1
    25    9   43 1
    26    9   44 1
    27   10   11 1
    28   10   45 1
    29   10   46 1
    30   11   19 1
    31   11   12 1
    32   12   17 ar
    33   12   13 ar
    34   13   14 ar
    35   13   47 1
    36   14   15 ar
    37   14   48 1
    38   15   16 ar
    39   15   29 1
    40   16   17 ar
    41   16   49 1
    42   17   18 1
    43   18   23 ar
    44   18   19 ar
    45   19   20 ar
    46   20   21 ar
    47   20   50 1
    48   21   22 ar
    49   21   51 1
    50   22   27 1
    51   22   23 ar
    52   23   24 1
    53   24   25 2
    54   24   26 am
    55   26   27 am
    56   26   52 1
    57   27   28 2
    58   29   53 1
@<TRIPOS>MOLECULE
CHEMBL483953
   54    58     0     0     0
SMALL
USER_CHARGES

@<TRIPOS>ATOM
      1 C1         -0.0178    1.4648    0.0101 C.3       1 <0>         0.0190
      2 N1          0.0021   -0.0041    0.0020 N.3       1 <0>        -0.5433
      3 C2         -1.3607   -0.5489   -0.0764 C.3       1 <0>         0.0235
      4 C3         -1.2932   -2.0762   -0.1426 C.3       1 <0>        -0.0018
      5 N2         -0.6107   -2.5886    1.0529 N.4       1 <0>        -0.3862
      6 C4          0.7570   -2.0553    1.1043 C.3       1 <0>        -0.0070
      7 C5          0.7065   -0.5278    1.1808 C.3       1 <0>         0.0245
      8 C6         -0.5621   -4.0557    0.9977 C.3       1 <0>        -0.0052
      9 C7          0.0360   -4.5955    2.2984 C.3       1 <0>        -0.1755
     10 C8          0.0866   -6.1236    2.2409 C.3       1 <0>         0.1216
     11 N3          0.6594   -6.6404    3.4863 N.pl3     1 <0>        -0.5039
     12 C9          2.0095   -6.8622    3.7038 C.ar      1 <0>         0.1312
     13 C10         3.1287   -6.6840    2.8966 C.ar      1 <0>        -0.1287
     14 C11         4.3835   -6.9918    3.3761 C.ar      1 <0>        -0.0952
     15 C12         4.5465   -7.4818    4.6674 C.ar      1 <0>         0.0877
     16 C13         3.4462   -7.6649    5.4837 C.ar      1 <0>        -0.0739
     17 C14         2.1728   -7.3566    5.0068 C.ar      1 <0>        -0.0901
     18 C15         0.8265   -7.4312    5.5976 C.ar      1 <0>        -0.0326
     19 C16        -0.0688   -6.9698    4.6112 C.ar      1 <0>         0.1654
     20 C17        -1.4317   -6.9210    4.8877 C.ar      1 <0>        -0.1257
     21 C18        -1.9137   -7.3170    6.1198 C.ar      1 <0>        -0.0086
     22 C19        -1.0424   -7.7705    7.1024 C.ar      1 <0>        -0.1623
     23 C20         0.3404   -7.8353    6.8410 C.ar      1 <0>        -0.0778
     24 C21         0.9623   -8.3521    8.0750 C.2       1 <0>         0.5754
     25 O1          2.1504   -8.5389    8.2457 O.2       1 <0>        -0.4515
     26 N4         -0.0064   -8.5811    8.9798 N.am      1 <0>        -0.6789
     27 C22        -1.2147   -8.2561    8.4858 C.2       1 <0>         0.5795
     28 O2         -2.2719   -8.3546    9.0760 O.2       1 <0>        -0.4550
     29 O3          5.7905   -7.7819    5.1276 O.3       1 <0>        -0.4908
     30 H1          1.0047    1.8421    0.0024 H         1 <0>         0.0849
     31 H2         -0.5450    1.8259   -0.8730 H         1 <0>         0.0847
     32 H3         -0.5280    1.8163    0.9069 H         1 <0>         0.0400
     33 H4         -1.9242   -0.2477    0.8067 H         1 <0>         0.0609
     34 H5         -1.8539   -0.1676   -0.9705 H         1 <0>         0.1251
     35 H6         -2.3035   -2.4830   -0.1865 H         1 <0>         0.1373
     36 H7         -0.7413   -2.3773   -1.0330 H         1 <0>         0.1391
     37 H8          1.2666   -2.4465    1.9848 H         1 <0>         0.1353
     38 H9          1.2983   -2.3564    0.2075 H         1 <0>         0.1396
     39 H10         1.7215   -0.1310    1.2040 H         1 <0>         0.1244
     40 H11         0.1771   -0.2262    2.0846 H         1 <0>         0.0606
     41 H12        -1.5711   -4.4482    0.8715 H         1 <0>         0.1366
     42 H13         0.0569   -4.3674    0.1563 H         1 <0>         0.1359
     43 H14         1.0451   -4.2031    2.4246 H         1 <0>         0.0964
     44 H15        -0.5829   -4.2839    3.1397 H         1 <0>         0.0956
     45 H16        -0.9224   -6.5160    2.1146 H         1 <0>         0.1025
     46 H17         0.7056   -6.4352    1.3995 H         1 <0>         0.1031
     47 H18         3.0138   -6.3041    1.8922 H         1 <0>         0.1287
     48 H19         5.2476   -6.8516    2.7436 H         1 <0>         0.1418
     49 H20         3.5722   -8.0457    6.4865 H         1 <0>         0.1501
     50 H21        -2.1188   -6.5700    4.1319 H         1 <0>         0.1403
     51 H22        -2.9740   -7.2735    6.3208 H         1 <0>         0.1530
     52 H23         0.1472   -8.9244    9.8740 H         1 <0>         0.4350
     53 H24         6.2376   -7.0432    5.5630 H         1 <0>         0.3943
     54 H25        -1.1152   -2.2999    1.8777 H         1 <0>         0.4212
@<TRIPOS>BOND
     1    1    2 1
     2    1   30 1
     3    1   31 1
     4    1   32 1
     5    2    7 1
     6    2    3 1
     7    3    4 1
     8    3   33 1
     9    3   34 1
    10    4    5 1
    11    4   35 1
    12    4   36 1
    13    5    6 1
    14    5    8 1
    15    5   54 1
    16    6    7 1
    17    6   37 1
    18    6   38 1
    19    7   39 1
    20    7   40 1
    21    8    9 1
    22    8   41 1
    23    8   42 1
    24    9   10 1
    25    9   43 1
    26    9   44 1
    27   10   11 1
    28   10   45 1
    29   10   46 1
    30   11   19 1
    31   11   12 1
    32   12   17 ar
    33   12   13 ar
    34   13   14 ar
    35   13   47 1
    36   14   15 ar
    37   14   48 1
    38   15   16 ar
    39   15   29 1
    40   16   17 ar
    41   16   49 1
    42   17   18 1
    43   18   23 ar
    44   18   19 ar
    45   19   20 ar
    46   20   21 ar
    47   20   50 1
    48   21   22 ar
    49   21   51 1
    50   22   27 1
    51   22   23 ar
    52   23   24 1
    53   24   25 2
    54   24   26 am
    55   26   27 am
    56   26   52 1
    57   27   28 2
    58   29   53 1
@<TRIPOS>MOLECULE
CHEMBL520984
   60    65     0     0     0
SMALL
USER_CHARGES

@<TRIPOS>ATOM
      1 C1         -0.0178    1.4608    0.0101 C.3       1 <0>         0.0726
      2 N1          0.0021   -0.0041    0.0020 N.pl3     1 <0>        -0.4973
      3 C2          0.0074   -0.7864   -1.1360 C.ar      1 <0>         0.1831
      4 C3         -0.0040   -0.4611   -2.4860 C.ar      1 <0>        -0.1053
      5 C4          0.0040   -1.4627   -3.4546 C.ar      1 <0>         0.0665
      6 C5          0.0241   -2.8096   -3.0714 C.ar      1 <0>        -0.1518
      7 C6          0.0362   -3.1494   -1.7056 C.ar      1 <0>        -0.0698
      8 C7          0.0277   -2.1405   -0.7412 C.ar      1 <0>        -0.0483
      9 C8          0.0345   -2.1453    0.7309 C.ar      1 <0>        -0.0437
     10 C9          0.0242   -0.8012    1.1349 C.ar      1 <0>         0.1201
     11 C10         0.0328   -0.4970    2.4921 C.ar      1 <0>        -0.0200
     12 C11         0.0556   -1.5089    3.4280 C.ar      1 <0>        -0.6472
     13 C12         0.0703   -2.8408    3.0289 C.ar      1 <0>         0.1621
     14 C13         0.0528   -3.1624    1.6844 C.ar      1 <0>        -0.0888
     15 O1          0.0937   -3.8290    3.9629 O.3       1 <0>        -0.4796
     16 S1          0.0669   -1.1112    5.1445 S.o2      1 <0>         2.5027
     17 O2          1.1506   -1.8566    5.6823 O.2       1 <0>        -0.9081
     18 O3          0.0727    0.3092    5.1875 O.2       1 <0>        -0.9326
     19 C14        -1.5073   -1.7492    5.7812 C.3       1 <0>        -0.6108
     20 C15        -1.6074   -1.4567    7.2797 C.3       1 <0>        -0.1313
     21 C16        -2.9351   -1.9948    7.8167 C.3       1 <0>         0.1152
     22 N2         -3.0310   -1.7147    9.2515 N.pl3     1 <0>        -0.4534
     23 C17        -2.5939   -2.5321   10.2514 C.2       1 <0>        -0.0175
     24 C18        -2.8563   -1.9331   11.4307 C.2       1 <0>        -0.1994
     25 C19        -3.4780   -0.7007   11.1486 C.2       1 <0>        -0.1989
     26 C20        -3.5667   -0.5909    9.8075 C.2       1 <0>        -0.0188
     27 C21         0.0554   -4.6240   -1.6557 C.2       1 <0>         0.5793
     28 O4          0.0694   -5.2996   -0.6461 O.2       1 <0>        -0.4547
     29 N3          0.0542   -5.0945   -2.9160 N.am      1 <0>        -0.6793
     30 C22         0.0363   -4.0863   -3.8064 C.2       1 <0>         0.5792
     31 O5          0.0304   -4.2084   -5.0154 O.2       1 <0>        -0.4438
     32 C23        -0.0093   -1.1024   -4.8913 C.ar      1 <0>        -0.0586
     33 C24         1.0740   -0.4278   -5.4542 C.ar      1 <0>        -0.0847
     34 C25         1.0559   -0.0949   -6.7928 C.ar      1 <0>        -0.1152
     35 C26        -0.0339   -0.4286   -7.5777 C.ar      1 <0>        -0.0937
     36 C27        -1.1115   -1.0974   -7.0266 C.ar      1 <0>        -0.1086
     37 C28        -1.1033   -1.4416   -5.6887 C.ar      1 <0>         0.0006
     38 Cl1        -2.4535   -2.2875   -4.9995 Cl        1 <0>        -0.0614
     39 H1          1.0048    1.8381    0.0023 H         1 <0>         0.0795
     40 H2         -0.5450    1.8219   -0.8730 H         1 <0>         0.0905
     41 H3         -0.5280    1.8123    0.9069 H         1 <0>         0.0917
     42 H4         -0.0195    0.5759   -2.7873 H         1 <0>         0.1492
     43 H5          0.0219    0.5341    2.8134 H         1 <0>         0.1566
     44 H6          0.0654   -4.1967    1.3739 H         1 <0>         0.1586
     45 H7         -0.7828   -4.1272    4.2421 H         1 <0>         0.3921
     46 H8         -2.3330   -1.2644    5.2605 H         1 <0>         0.1420
     47 H9         -1.5560   -2.8256    5.6171 H         1 <0>         0.1376
     48 H10        -0.7816   -1.9414    7.8004 H         1 <0>         0.0921
     49 H11        -1.5586   -0.3802    7.4438 H         1 <0>         0.0906
     50 H12        -3.7609   -1.5100    7.2960 H         1 <0>         0.0949
     51 H13        -2.9839   -3.0712    7.6526 H         1 <0>         0.0957
     52 H14        -2.1200   -3.4938   10.1213 H         1 <0>         0.1616
     53 H15        -2.6311   -2.3259   12.4112 H         1 <0>         0.1357
     54 H16        -3.8171    0.0249   11.8732 H         1 <0>         0.1355
     55 H17        -3.9909    0.2424    9.2671 H         1 <0>         0.1608
     56 H18         0.0653   -6.0354   -3.1513 H         1 <0>         0.4331
     57 H19         1.9253   -0.1663   -4.8431 H         1 <0>         0.1353
     58 H20         1.8942    0.4278   -7.2293 H         1 <0>         0.1345
     59 H21        -0.0430   -0.1652   -8.6250 H         1 <0>         0.1357
     60 H22        -1.9592   -1.3550   -7.6442 H         1 <0>         0.1377
@<TRIPOS>BOND
     1    1    2 1
     2    1   39 1
     3    1   40 1
     4    1   41 1
     5    2   10 1
     6    2    3 1
     7    3    8 ar
     8    3    4 ar
     9    4    5 ar
    10    4   42 1
    11    5    6 ar
    12    5   32 1
    13    6   30 1
    14    6    7 ar
    15    7    8 ar
    16    7   27 1
    17    8    9 1
    18    9   14 ar
    19    9   10 ar
    20   10   11 ar
    21   11   12 ar
    22   11   43 1
    23   12   13 ar
    24   12   16 1
    25   13   14 ar
    26   13   15 1
    27   14   44 1
    28   15   45 1
    29   16   17 2
    30   16   18 2
    31   16   19 1
    32   19   20 1
    33   19   46 1
    34   19   47 1
    35   20   21 1
    36   20   48 1
    37   20   49 1
    38   21   22 1
    39   21   50 1
    40   21   51 1
    41   22   26 1
    42   22   23 1
    43   23   24 2
    44   23   52 1
    45   24   25 1
    46   24   53 1
    47   25   26 2
    48   25   54 1
    49   26   55 1
    50   27   28 2
    51   27   29 am
    52   29   30 am
    53   29   56 1
    54   30   31 2
    55   32   37 ar
    56   32   33 ar
    57   33   34 ar
    58   33   57 1
    59   34   35 ar
    60   34   58 1
    61   35   36 ar
    62   35   59 1
    63   36   37 ar
    64   36   60 1
    65   37   38 1
@<TRIPOS>MOLECULE
CHEMBL520984
   59    64     0     0     0
SMALL
USER_CHARGES

@<TRIPOS>ATOM
      1 C1         -0.0178    1.4608    0.0101 C.3       1 <0>         0.0847
      2 N1          0.0021   -0.0041    0.0020 N.pl3     1 <0>        -0.4980
      3 C2          0.0074   -0.7864   -1.1360 C.ar      1 <0>         0.1971
      4 C3         -0.0040   -0.4611   -2.4860 C.ar      1 <0>        -0.1347
      5 C4          0.0040   -1.4627   -3.4546 C.ar      1 <0>         0.0573
      6 C5          0.0241   -2.8096   -3.0714 C.ar      1 <0>        -0.1864
      7 C6          0.0362   -3.1494   -1.7056 C.ar      1 <0>        -0.0702
      8 C7          0.0277   -2.1405   -0.7412 C.ar      1 <0>        -0.0412
      9 C8          0.0345   -2.1453    0.7309 C.ar      1 <0>        -0.0230
     10 C9          0.0242   -0.8012    1.1349 C.ar      1 <0>        -0.0059
     11 C10         0.0328   -0.4970    2.4921 C.ar      1 <0>         0.0109
     12 C11         0.0556   -1.5089    3.4280 C.ar      1 <0>        -0.7598
     13 C12         0.0703   -2.8408    3.0289 C.ar      1 <0>         0.3240
     14 C13         0.0528   -3.1624    1.6844 C.ar      1 <0>        -0.1887
     15 O1          0.0937   -3.8290    3.9629 O.3       1 <0>        -0.6857
     16 S1          0.0669   -1.1112    5.1445 S.o2      1 <0>         2.5265
     17 O2          1.1506   -1.8566    5.6823 O.2       1 <0>        -0.9341
     18 O3          0.0727    0.3092    5.1875 O.2       1 <0>        -0.9755
     19 C14        -1.5073   -1.7492    5.7812 C.3       1 <0>        -0.6125
     20 C15        -1.6074   -1.4567    7.2797 C.3       1 <0>        -0.1253
     21 C16        -2.9351   -1.9948    7.8167 C.3       1 <0>         0.1118
     22 N2         -3.0310   -1.7147    9.2515 N.pl3     1 <0>        -0.4469
     23 C17        -2.5939   -2.5321   10.2514 C.2       1 <0>        -0.0136
     24 C18        -2.8563   -1.9331   11.4307 C.2       1 <0>        -0.2069
     25 C19        -3.4780   -0.7007   11.1486 C.2       1 <0>        -0.2057
     26 C20        -3.5667   -0.5909    9.8075 C.2       1 <0>        -0.0179
     27 C21         0.0554   -4.6240   -1.6557 C.2       1 <0>         0.5717
     28 O4          0.0694   -5.2996   -0.6461 O.2       1 <0>        -0.4459
     29 N3          0.0542   -5.0945   -2.9160 N.am      1 <0>        -0.6841
     30 C22         0.0363   -4.0863   -3.8064 C.2       1 <0>         0.5848
     31 O5          0.0304   -4.2084   -5.0154 O.2       1 <0>        -0.4693
     32 C23        -0.0093   -1.1024   -4.8913 C.ar      1 <0>        -0.0394
     33 C24         1.0740   -0.4278   -5.4542 C.ar      1 <0>        -0.0883
     34 C25         1.0559   -0.0949   -6.7928 C.ar      1 <0>        -0.1184
     35 C26        -0.0339   -0.4286   -7.5777 C.ar      1 <0>        -0.1037
     36 C27        -1.1115   -1.0974   -7.0266 C.ar      1 <0>        -0.1116
     37 C28        -1.1033   -1.4416   -5.6887 C.ar      1 <0>        -0.0006
     38 Cl1        -2.4535   -2.2875   -4.9995 Cl        1 <0>        -0.0608
     39 H1          1.0048    1.8381    0.0023 H         1 <0>         0.0652
     40 H2         -0.5450    1.8219   -0.8730 H         1 <0>         0.0762
     41 H3         -0.5280    1.8123    0.9069 H         1 <0>         0.0830
     42 H4         -0.0195    0.5759   -2.7873 H         1 <0>         0.1367
     43 H5          0.0219    0.5341    2.8134 H         1 <0>         0.1239
     44 H6          0.0654   -4.1967    1.3739 H         1 <0>         0.1294
     45 H7         -2.3330   -1.2644    5.2605 H         1 <0>         0.1261
     46 H8         -1.5560   -2.8256    5.6171 H         1 <0>         0.1499
     47 H9         -0.7816   -1.9414    7.8004 H         1 <0>         0.0856
     48 H10        -1.5586   -0.3802    7.4438 H         1 <0>         0.0811
     49 H11        -3.7609   -1.5100    7.2960 H         1 <0>         0.0933
     50 H12        -2.9839   -3.0712    7.6526 H         1 <0>         0.0968
     51 H13        -2.1200   -3.4938   10.1213 H         1 <0>         0.1609
     52 H14        -2.6311   -2.3259   12.4112 H         1 <0>         0.1326
     53 H15        -3.8171    0.0249   11.8732 H         1 <0>         0.1321
     54 H16        -3.9909    0.2424    9.2671 H         1 <0>         0.1590
     55 H17         0.0653   -6.0354   -3.1513 H         1 <0>         0.4255
     56 H18         1.9253   -0.1663   -4.8431 H         1 <0>         0.1342
     57 H19         1.8942    0.4278   -7.2293 H         1 <0>         0.1299
     58 H20        -0.0430   -0.1652   -8.6250 H         1 <0>         0.1305
     59 H21        -1.9592   -1.3550   -7.6442 H         1 <0>         0.1333
@<TRIPOS>BOND
     1    1    2 1
     2    1   39 1
     3    1   40 1
     4    1   41 1
     5    2   10 1
     6    2    3 1
     7    3    8 ar
     8    3    4 ar
     9    4    5 ar
    10    4   42 1
    11    5    6 ar
    12    5   32 1
    13    6   30 1
    14    6    7 ar
    15    7    8 ar
    16    7   27 1
    17    8    9 1
    18    9   14 ar
    19    9   10 ar
    20   10   11 ar
    21   11   12 ar
    22   11   43 1
    23   12   13 ar
    24   12   16 1
    25   13   14 ar
    26   13   15 1
    27   14   44 1
    28   16   17 2
    29   16   18 2
    30   16   19 1
    31   19   20 1
    32   19   45 1
    33   19   46 1
    34   20   21 1
    35   20   47 1
    36   20   48 1
    37   21   22 1
    38   21   49 1
    39   21   50 1
    40   22   26 1
    41   22   23 1
    42   23   24 2
    43   23   51 1
    44   24   25 1
    45   24   52 1
    46   25   26 2
    47   25   53 1
    48   26   54 1
    49   27   28 2
    50   27   29 am
    51   29   30 am
    52   29   55 1
    53   30   31 2
    54   32   37 ar
    55   32   33 ar
    56   33   34 ar
    57   33   56 1
    58   34   35 ar
    59   34   57 1
    60   35   36 ar
    61   35   58 1
    62   36   37 ar
    63   36   59 1
    64   37   38 1
@<TRIPOS>MOLECULE
CHEMBL214172
   36    40     0     0     0
SMALL
USER_CHARGES

@<TRIPOS>ATOM
      1 C1         -0.0167    1.3787    0.0096 C.ar      1 <0>        -0.1757
      2 C2          1.1811    2.0724    0.0019 C.ar      1 <0>        -0.0532
      3 C3          2.3719    1.3392   -0.0134 C.ar      1 <0>        -0.1212
      4 C4          2.3057   -0.0539   -0.0202 C.ar      1 <0>         0.1505
      5 N1          1.1414   -0.6692   -0.0129 N.ar      1 <0>        -0.4812
      6 C5          0.0021   -0.0041    0.0020 C.ar      1 <0>         0.1106
      7 C6          3.6820    2.0308   -0.0227 C.ar      1 <0>         0.0675
      8 C7          3.9244    3.0505   -0.9409 C.ar      1 <0>        -0.1114
      9 C8          5.1481    3.7061   -0.9589 C.ar      1 <0>         0.1768
     10 C9          6.1550    3.3385   -0.0413 C.ar      1 <0>        -0.0327
     11 C10         7.3089    4.2096   -0.3186 C.ar      1 <0>        -0.0965
     12 C11         8.5797    4.3239    0.2444 C.ar      1 <0>        -0.0750
     13 C12         9.4654    5.2638   -0.2481 C.ar      1 <0>         0.0794
     14 C13         9.0905    6.0925   -1.3004 C.ar      1 <0>        -0.0954
     15 C14         7.8368    5.9867   -1.8627 C.ar      1 <0>        -0.1248
     16 C15         6.9321    5.0461   -1.3805 C.ar      1 <0>         0.1387
     17 N2          5.6351    4.7286   -1.7490 N.pl3     1 <0>        -0.6069
     18 H1          5.1394    5.1628   -2.4608 H         1 <0>         0.4261
     19 O1         10.7057    5.3789    0.2976 O.3       1 <0>        -0.4930
     20 C16         5.9196    2.3181    0.8811 C.ar      1 <0>        -0.0763
     21 C17         4.6735    1.6631    0.8950 C.ar      1 <0>        -0.1635
     22 C18         4.7530    0.6640    1.9749 C.2       1 <0>         0.5793
     23 O2          3.8691   -0.1060    2.2948 O.2       1 <0>        -0.4527
     24 N3          5.9675    0.7461    2.5473 N.am      1 <0>        -0.6792
     25 C19         6.7173    1.6917    1.9528 C.2       1 <0>         0.5787
     26 O3          7.8551    1.9898    2.2568 O.2       1 <0>        -0.4541
     27 H2         -0.9559    1.9117    0.0259 H         1 <0>         0.1401
     28 H3          1.1958    3.1523    0.0072 H         1 <0>         0.1379
     29 H4          3.2171   -0.6331   -0.0321 H         1 <0>         0.1537
     30 H5         -0.9308   -0.5482    0.0080 H         1 <0>         0.1590
     31 H6          3.1547    3.3327   -1.6441 H         1 <0>         0.1470
     32 H7          8.8704    3.6809    1.0620 H         1 <0>         0.1480
     33 H8          9.7875    6.8251   -1.6796 H         1 <0>         0.1406
     34 H9          7.5560    6.6352   -2.6794 H         1 <0>         0.1350
     35 H10        11.3733    4.8188   -0.1215 H         1 <0>         0.3911
     36 H11         6.2658    0.1916    3.2852 H         1 <0>         0.4327
@<TRIPOS>BOND
     1    1    6 ar
     2    1    2 ar
     3    1   27 1
     4    2    3 ar
     5    2   28 1
     6    3    4 ar
     7    3    7 1
     8    4    5 ar
     9    4   29 1
    10    5    6 ar
    11    6   30 1
    12    7   21 ar
    13    7    8 ar
    14    8    9 ar
    15    8   31 1
    16    9   17 1
    17    9   10 ar
    18   10   11 1
    19   10   20 ar
    20   11   16 ar
    21   11   12 ar
    22   12   13 ar
    23   12   32 1
    24   13   14 ar
    25   13   19 1
    26   14   15 ar
    27   14   33 1
    28   15   16 ar
    29   15   34 1
    30   16   17 1
    31   17   18 1
    32   19   35 1
    33   20   25 1
    34   20   21 ar
    35   21   22 1
    36   22   23 2
    37   22   24 am
    38   24   25 am
    39   24   36 1
    40   25   26 2
@<TRIPOS>MOLECULE
CHEMBL521200
   50    55     0     0     0
SMALL
USER_CHARGES

@<TRIPOS>ATOM
      1 C1         -0.0166    1.3753    0.0096 C.ar      1 <0>        -0.1159
      2 C2          1.1702    2.0869    0.0021 C.ar      1 <0>        -0.0950
      3 C3          2.3823    1.4213   -0.0135 C.ar      1 <0>        -0.1087
      4 C4          2.4147    0.0403   -0.0213 C.ar      1 <0>        -0.0001
      5 C5          1.2208   -0.6823   -0.0133 C.ar      1 <0>        -0.0560
      6 C6          0.0021   -0.0041    0.0020 C.ar      1 <0>        -0.0858
      7 C7          1.2476   -2.1633   -0.0220 C.ar      1 <0>         0.0594
      8 C8          0.7443   -2.8623   -1.1176 C.ar      1 <0>        -0.1055
      9 C9          0.7641   -4.2503   -1.1370 C.ar      1 <0>         0.1731
     10 C10         1.2978   -4.9603   -0.0406 C.ar      1 <0>        -0.0260
     11 C11         1.1711   -6.3898   -0.3691 C.ar      1 <0>        -0.0920
     12 C12         1.5141   -7.5614    0.3052 C.ar      1 <0>        -0.0736
     13 C13         1.2616   -8.7878   -0.2800 C.ar      1 <0>         0.0811
     14 C14         0.6683   -8.8531   -1.5363 C.ar      1 <0>        -0.0943
     15 C15         0.3265   -7.7006   -2.2102 C.ar      1 <0>        -0.1249
     16 C16         0.5722   -6.4571   -1.6364 C.ar      1 <0>         0.1401
     17 N1          0.3368   -5.1656   -2.0786 N.pl3     1 <0>        -0.4948
     18 C17        -0.2788   -4.8200   -3.3623 C.3       1 <0>         0.1338
     19 C18         0.8102   -4.6727   -4.4269 C.3       1 <0>        -0.1591
     20 S1          0.0480   -4.2447   -6.0164 S.3       1 <0>         0.2041
     21 N2          1.3314   -4.1201   -7.0555 N.pl3     1 <0>        -0.3191
     22 C19         1.2596   -3.8092   -8.3704 C.2       1 <0>        -0.0257
     23 C20         2.5326   -3.8179   -8.8300 C.2       1 <0>        -0.0332
     24 N3          3.3107   -4.1296   -7.7875 N.2       1 <0>        -0.2527
     25 N4          2.5691   -4.2970   -6.7498 N.2       1 <0>        -0.0964
     26 O1          1.5943   -9.9330    0.3737 O.3       1 <0>        -0.4925
     27 C21         1.8044   -4.2673    1.0595 C.ar      1 <0>        -0.0799
     28 C22         1.7840   -2.8596    1.0679 C.ar      1 <0>        -0.1487
     29 C23         2.3884   -2.4533    2.3485 C.2       1 <0>         0.5790
     30 O2          2.5449   -1.3094    2.7274 O.2       1 <0>        -0.4464
     31 N5          2.7379   -3.5599    3.0287 N.am      1 <0>        -0.6801
     32 C24         2.4184   -4.6701    2.3393 C.2       1 <0>         0.5793
     33 O3          2.6139   -5.8124    2.7038 O.2       1 <0>        -0.4554
     34 Cl1         3.9368   -0.7943   -0.0415 Cl        1 <0>        -0.0602
     35 H1         -0.9598    1.9012    0.0260 H         1 <0>         0.1338
     36 H2          1.1498    3.1667    0.0081 H         1 <0>         0.1350
     37 H3          3.3052    1.9822   -0.0201 H         1 <0>         0.1371
     38 H4         -0.9252   -0.5577    0.0083 H         1 <0>         0.1349
     39 H5          0.3356   -2.3202   -1.9575 H         1 <0>         0.1456
     40 H6          1.9754   -7.5105    1.2804 H         1 <0>         0.1486
     41 H7          0.4742   -9.8149   -1.9876 H         1 <0>         0.1406
     42 H8         -0.1334   -7.7627   -3.1854 H         1 <0>         0.1330
     43 H9         -0.9710   -5.6085   -3.6574 H         1 <0>         0.1096
     44 H10        -0.8204   -3.8791   -3.2640 H         1 <0>         0.1077
     45 H11         1.5024   -3.8841   -4.1319 H         1 <0>         0.1103
     46 H12         1.3518   -5.6135   -4.5253 H         1 <0>         0.1112
     47 H13         0.3661   -3.5971   -8.9389 H         1 <0>         0.2010
     48 H14         2.8565   -3.6137   -9.8399 H         1 <0>         0.2005
     49 H15         0.8923  -10.2803    0.9408 H         1 <0>         0.3911
     50 H16         3.1568   -3.5579    3.9036 H         1 <0>         0.4320
@<TRIPOS>BOND
     1    1    6 ar
     2    1    2 ar
     3    1   35 1
     4    2    3 ar
     5    2   36 1
     6    3    4 ar
     7    3   37 1
     8    4    5 ar
     9    4   34 1
    10    5    6 ar
    11    5    7 1
    12    6   38 1
    13    7   28 ar
    14    7    8 ar
    15    8    9 ar
    16    8   39 1
    17    9   17 1
    18    9   10 ar
    19   10   11 1
    20   10   27 ar
    21   11   16 ar
    22   11   12 ar
    23   12   13 ar
    24   12   40 1
    25   13   14 ar
    26   13   26 1
    27   14   15 ar
    28   14   41 1
    29   15   16 ar
    30   15   42 1
    31   16   17 1
    32   17   18 1
    33   18   19 1
    34   18   43 1
    35   18   44 1
    36   19   20 1
    37   19   45 1
    38   19   46 1
    39   20   21 1
    40   21   25 1
    41   21   22 1
    42   22   23 2
    43   22   47 1
    44   23   24 1
    45   23   48 1
    46   24   25 2
    47   26   49 1
    48   27   32 1
    49   27   28 ar
    50   28   29 1
    51   29   30 2
    52   29   31 am
    53   31   32 am
    54   31   50 1
    55   32   33 2
@<TRIPOS>MOLECULE
CHEMBL379346
   47    52     0     0     0
SMALL
USER_CHARGES

@<TRIPOS>ATOM
      1 C1          3.9068   -6.8054    1.0832 C.ar      1 <0>        -0.1161
      2 C2          3.9135   -6.3652   -0.2282 C.ar      1 <0>        -0.1224
      3 C3          4.1598   -5.0374   -0.5121 C.ar      1 <0>        -0.0929
      4 C4          4.4022   -4.1389    0.5261 C.ar      1 <0>        -0.0501
      5 C5          4.3941   -4.5883    1.8459 C.ar      1 <0>        -0.1026
      6 C6          4.1466   -5.9184    2.1174 C.ar      1 <0>        -0.1207
      7 C7          4.6678   -2.7116    0.2278 C.ar      1 <0>        -0.0100
      8 C8          5.7029   -2.3571   -0.6331 C.ar      1 <0>        -0.1049
      9 C9          5.9466   -1.0267   -0.9086 C.ar      1 <0>        -0.1057
     10 C10         5.1669   -0.0375   -0.3328 C.ar      1 <0>        -0.1178
     11 C11         4.1369   -0.3701    0.5228 C.ar      1 <0>        -0.0957
     12 C12         3.8728   -1.7087    0.8077 C.ar      1 <0>        -0.0519
     13 C13         2.7655   -2.0711    1.7198 C.ar      1 <0>         0.0686
     14 C14         2.8424   -1.7447    3.0732 C.ar      1 <0>        -0.1154
     15 C15         1.8098   -2.0797    3.9381 C.ar      1 <0>         0.1751
     16 C16         0.6727   -2.7552    3.4461 C.ar      1 <0>        -0.0332
     17 C17        -0.2208   -2.9596    4.5981 C.ar      1 <0>        -0.0956
     18 C18        -1.4723   -3.5571    4.7452 C.ar      1 <0>        -0.0753
     19 C19        -2.0719   -3.5943    5.9900 C.ar      1 <0>         0.0781
     20 C20        -1.4296   -3.0382    7.0913 C.ar      1 <0>        -0.0964
     21 C21        -0.1930   -2.4453    6.9552 C.ar      1 <0>        -0.1257
     22 C22         0.4261   -2.3989    5.7101 C.ar      1 <0>         0.1391
     23 N1          1.6400   -1.8774    5.2936 N.pl3     1 <0>        -0.6080
     24 H1          2.2799   -1.4335    5.8719 H         1 <0>         0.4253
     25 O1         -3.2924   -4.1754    6.1383 O.3       1 <0>        -0.4931
     26 C23         0.5880   -3.0852    2.0928 C.ar      1 <0>        -0.0798
     27 C24         1.6380   -2.7368    1.2220 C.ar      1 <0>        -0.1522
     28 C25         1.2345   -3.2157   -0.1113 C.2       1 <0>         0.5794
     29 O2          1.8852   -3.1045   -1.1315 O.2       1 <0>        -0.4471
     30 N2          0.0256   -3.7972   -0.0111 N.am      1 <0>        -0.6812
     31 C26        -0.4192   -3.7680    1.2583 C.2       1 <0>         0.5788
     32 O3         -1.4781   -4.2170    1.6494 O.2       1 <0>        -0.4578
     33 H2          3.7092   -7.8446    1.3008 H         1 <0>         0.1214
     34 H3          3.7260   -7.0623   -1.0316 H         1 <0>         0.1231
     35 H4          4.1652   -4.6950   -1.5363 H         1 <0>         0.1254
     36 H5          4.5816   -3.8969    2.6541 H         1 <0>         0.1195
     37 H6          4.1401   -6.2677    3.1394 H         1 <0>         0.1215
     38 H7          6.3154   -3.1231   -1.0853 H         1 <0>         0.1270
     39 H8          6.7504   -0.7555   -1.5770 H         1 <0>         0.1266
     40 H9          5.3666    1.0005   -0.5545 H         1 <0>         0.1271
     41 H10         3.5330    0.4064    0.9687 H         1 <0>         0.1270
     42 H11         3.7120   -1.2277    3.4514 H         1 <0>         0.1462
     43 H12        -1.9712   -3.9885    3.8900 H         1 <0>         0.1472
     44 H13        -1.9040   -3.0709    8.0609 H         1 <0>         0.1398
     45 H14         0.2967   -2.0162    7.8169 H         1 <0>         0.1342
     46 H15        -3.2561   -5.1193    6.3455 H         1 <0>         0.3904
     47 H16        -0.4575   -4.1921   -0.7538 H         1 <0>         0.4305
@<TRIPOS>BOND
     1    1    6 ar
     2    1    2 ar
     3    1   33 1
     4    2    3 ar
     5    2   34 1
     6    3    4 ar
     7    3   35 1
     8    4    5 ar
     9    4    7 1
    10    5    6 ar
    11    5   36 1
    12    6   37 1
    13    7   12 ar
    14    7    8 ar
    15    8    9 ar
    16    8   38 1
    17    9   10 ar
    18    9   39 1
    19   10   11 ar
    20   10   40 1
    21   11   12 ar
    22   11   41 1
    23   12   13 1
    24   13   27 ar
    25   13   14 ar
    26   14   15 ar
    27   14   42 1
    28   15   23 1
    29   15   16 ar
    30   16   17 1
    31   16   26 ar
    32   17   22 ar
    33   17   18 ar
    34   18   19 ar
    35   18   43 1
    36   19   20 ar
    37   19   25 1
    38   20   21 ar
    39   20   44 1
    40   21   22 ar
    41   21   45 1
    42   22   23 1
    43   23   24 1
    44   25   46 1
    45   26   31 1
    46   26   27 ar
    47   27   28 1
    48   28   29 2
    49   28   30 am
    50   30   31 am
    51   30   47 1
    52   31   32 2
@<TRIPOS>MOLECULE
CHEMBL181233
   42    45     0     0     0
SMALL
USER_CHARGES

@<TRIPOS>ATOM
      1 C1         -0.0519    1.4096    0.7071 C.3       1 <0>         0.0698
      2 N1         -0.0222   -0.0405    0.5012 N.am      1 <0>        -0.5059
      3 C2         -1.1943   -0.7195    0.2832 C.ar      1 <0>         0.4675
      4 C3         -1.1832   -2.1169    0.0825 C.ar      1 <0>        -0.2784
      5 C4          0.0378   -2.8290    0.1045 C.2       1 <0>         0.0338
      6 C5          1.2023   -2.1429    0.3227 C.2       1 <0>        -0.1667
      7 C6          1.1560   -0.6928    0.5222 C.2       1 <0>         0.5579
      8 O1          2.1880   -0.0740    0.7120 O.2       1 <0>        -0.5013
      9 C7          2.4983   -2.8604    0.3516 C.ar      1 <0>         0.0061
     10 C8          2.9866   -3.3763    1.5532 C.ar      1 <0>        -0.0170
     11 C9          4.1949   -4.0444    1.5764 C.ar      1 <0>        -0.0888
     12 C10         4.9238   -4.2044    0.4120 C.ar      1 <0>        -0.1148
     13 C11         4.4461   -3.6949   -0.7869 C.ar      1 <0>         0.1236
     14 C12         3.2317   -3.0276   -0.8224 C.ar      1 <0>        -0.0371
     15 Cl1         2.6291   -2.3957   -2.3228 Cl        1 <0>        -0.0369
     16 O2          5.1669   -3.8551   -1.9284 O.3       1 <0>        -0.4813
     17 Cl2         2.0758   -3.1777    3.0176 Cl        1 <0>        -0.0465
     18 C13        -2.4036   -2.7730   -0.1376 C.ar      1 <0>         0.2647
     19 N2         -3.5126   -2.0575   -0.1481 N.ar      1 <0>        -0.5671
     20 C14        -3.4850   -0.7434    0.0446 C.ar      1 <0>         0.6092
     21 N3         -2.3584   -0.0804    0.2560 N.ar      1 <0>        -0.5951
     22 N4         -4.6757   -0.0424    0.0231 N.pl3     1 <0>        -0.6258
     23 C15        -5.8891   -0.7288   -0.0813 C.ar      1 <0>         0.1542
     24 C16        -6.0352   -1.9780    0.5084 C.ar      1 <0>        -0.1100
     25 C17        -7.2352   -2.6534    0.4033 C.ar      1 <0>        -0.1006
     26 C18        -8.2906   -2.0876   -0.2884 C.ar      1 <0>        -0.1327
     27 C19        -8.1483   -0.8444   -0.8770 C.ar      1 <0>        -0.0994
     28 C20        -6.9531   -0.1607   -0.7701 C.ar      1 <0>        -0.1437
     29 H1          0.9634    1.7759    0.8589 H         1 <0>         0.1010
     30 H2         -0.4851    1.8923   -0.1690 H         1 <0>         0.0804
     31 H3         -0.6562    1.6397    1.5846 H         1 <0>         0.0806
     32 H4          0.0517   -3.8980   -0.0481 H         1 <0>         0.1510
     33 H5          4.5720   -4.4429    2.5067 H         1 <0>         0.1490
     34 H6          5.8684   -4.7275    0.4361 H         1 <0>         0.1515
     35 H7          4.9571   -4.6635   -2.4159 H         1 <0>         0.3966
     36 H8         -2.4349   -3.8410   -0.2954 H         1 <0>         0.1884
     37 H9         -4.6695    0.9258    0.0805 H         1 <0>         0.4265
     38 H10        -5.2111   -2.4207    1.0481 H         1 <0>         0.1345
     39 H11        -7.3494   -3.6247    0.8615 H         1 <0>         0.1263
     40 H12        -9.2278   -2.6180   -0.3694 H         1 <0>         0.1239
     41 H13        -8.9744   -0.4055   -1.4168 H         1 <0>         0.1271
     42 H14        -6.8443    0.8123   -1.2259 H         1 <0>         0.1252
@<TRIPOS>BOND
     1    1    2 1
     2    1   29 1
     3    1   30 1
     4    1   31 1
     5    2    7 am
     6    2    3 1
     7    3   21 ar
     8    3    4 ar
     9    4    5 1
    10    4   18 ar
    11    5    6 2
    12    5   32 1
    13    6    7 1
    14    6    9 1
    15    7    8 2
    16    9   14 ar
    17    9   10 ar
    18   10   11 ar
    19   10   17 1
    20   11   12 ar
    21   11   33 1
    22   12   13 ar
    23   12   34 1
    24   13   14 ar
    25   13   16 1
    26   14   15 1
    27   16   35 1
    28   18   19 ar
    29   18   36 1
    30   19   20 ar
    31   20   21 ar
    32   20   22 1
    33   22   23 1
    34   22   37 1
    35   23   28 ar
    36   23   24 ar
    37   24   25 ar
    38   24   38 1
    39   25   26 ar
    40   25   39 1
    41   26   27 ar
    42   26   40 1
    43   27   28 ar
    44   27   41 1
    45   28   42 1
@<TRIPOS>MOLECULE
CHEMBL529897
   50    55     0     0     0
SMALL
USER_CHARGES

@<TRIPOS>ATOM
      1 C1         -0.0166    1.3753    0.0096 C.ar      1 <0>        -0.1152
      2 C2          1.1702    2.0869    0.0021 C.ar      1 <0>        -0.0943
      3 C3          2.3823    1.4213   -0.0135 C.ar      1 <0>        -0.1084
      4 C4          2.4147    0.0403   -0.0213 C.ar      1 <0>        -0.0001
      5 C5          1.2208   -0.6823   -0.0133 C.ar      1 <0>        -0.0568
      6 C6          0.0021   -0.0041    0.0020 C.ar      1 <0>        -0.0858
      7 C7          1.2476   -2.1633   -0.0220 C.ar      1 <0>         0.0604
      8 C8          0.7443   -2.8623   -1.1176 C.ar      1 <0>        -0.1063
      9 C9          0.7641   -4.2503   -1.1370 C.ar      1 <0>         0.1720
     10 C10         1.2978   -4.9603   -0.0406 C.ar      1 <0>        -0.0271
     11 C11         1.1711   -6.3898   -0.3691 C.ar      1 <0>        -0.0923
     12 C12         1.5141   -7.5614    0.3052 C.ar      1 <0>        -0.0734
     13 C13         1.2616   -8.7878   -0.2800 C.ar      1 <0>         0.0811
     14 C14         0.6683   -8.8531   -1.5363 C.ar      1 <0>        -0.0941
     15 C15         0.3265   -7.7006   -2.2102 C.ar      1 <0>        -0.1256
     16 C16         0.5722   -6.4571   -1.6364 C.ar      1 <0>         0.1389
     17 N1          0.3368   -5.1656   -2.0786 N.pl3     1 <0>        -0.4980
     18 C17        -0.2788   -4.8200   -3.3623 C.3       1 <0>         0.1010
     19 C18         0.8102   -4.6727   -4.4269 C.3       1 <0>         0.0871
     20 N2          0.1946   -4.3270   -5.7106 N.pl3     1 <0>        -0.4611
     21 C19        -0.2449   -5.2060   -6.6634 C.2       1 <0>        -0.0574
     22 C20        -0.7385   -4.4681   -7.6761 C.2       1 <0>        -0.0233
     23 N3         -0.6041   -3.1740   -7.3505 N.2       1 <0>        -0.4897
     24 C21        -0.0505   -3.0819   -6.1723 C.2       1 <0>         0.1837
     25 O1          1.5943   -9.9330    0.3737 O.3       1 <0>        -0.4926
     26 C22         1.8044   -4.2673    1.0595 C.ar      1 <0>        -0.0793
     27 C23         1.7840   -2.8596    1.0679 C.ar      1 <0>        -0.1486
     28 C24         2.3884   -2.4533    2.3485 C.2       1 <0>         0.5787
     29 O2          2.5449   -1.3094    2.7274 O.2       1 <0>        -0.4458
     30 N4          2.7379   -3.5599    3.0287 N.am      1 <0>        -0.6801
     31 C25         2.4184   -4.6701    2.3393 C.2       1 <0>         0.5791
     32 O3          2.6139   -5.8124    2.7038 O.2       1 <0>        -0.4554
     33 Cl1         3.9368   -0.7943   -0.0415 Cl        1 <0>        -0.0612
     34 H1         -0.9598    1.9012    0.0260 H         1 <0>         0.1340
     35 H2          1.1498    3.1667    0.0081 H         1 <0>         0.1353
     36 H3          3.3052    1.9822   -0.0201 H         1 <0>         0.1373
     37 H4         -0.9252   -0.5577    0.0083 H         1 <0>         0.1345
     38 H5          0.3356   -2.3202   -1.9575 H         1 <0>         0.1448
     39 H6          1.9754   -7.5105    1.2804 H         1 <0>         0.1488
     40 H7          0.4742   -9.8149   -1.9876 H         1 <0>         0.1407
     41 H8         -0.1334   -7.7627   -3.1854 H         1 <0>         0.1315
     42 H9         -0.9710   -5.6085   -3.6574 H         1 <0>         0.1024
     43 H10        -0.8204   -3.8791   -3.2640 H         1 <0>         0.1012
     44 H11         1.5024   -3.8841   -4.1319 H         1 <0>         0.1024
     45 H12         1.3518   -5.6135   -4.5253 H         1 <0>         0.1012
     46 H13        -0.2035   -6.2840   -6.6129 H         1 <0>         0.1753
     47 H14        -1.1675   -4.8513   -8.5902 H         1 <0>         0.1717
     48 H15         0.1765   -2.1622   -5.6536 H         1 <0>         0.2049
     49 H16         0.8923  -10.2803    0.9408 H         1 <0>         0.3916
     50 H17         3.1568   -3.5579    3.9036 H         1 <0>         0.4322
@<TRIPOS>BOND
     1    1    6 ar
     2    1    2 ar
     3    1   34 1
     4    2    3 ar
     5    2   35 1
     6    3    4 ar
     7    3   36 1
     8    4    5 ar
     9    4   33 1
    10    5    6 ar
    11    5    7 1
    12    6   37 1
    13    7   27 ar
    14    7    8 ar
    15    8    9 ar
    16    8   38 1
    17    9   17 1
    18    9   10 ar
    19   10   11 1
    20   10   26 ar
    21   11   16 ar
    22   11   12 ar
    23   12   13 ar
    24   12   39 1
    25   13   14 ar
    26   13   25 1
    27   14   15 ar
    28   14   40 1
    29   15   16 ar
    30   15   41 1
    31   16   17 1
    32   17   18 1
    33   18   19 1
    34   18   42 1
    35   18   43 1
    36   19   20 1
    37   19   44 1
    38   19   45 1
    39   20   24 1
    40   20   21 1
    41   21   22 2
    42   21   46 1
    43   22   23 1
    44   22   47 1
    45   23   24 2
    46   24   48 1
    47   25   49 1
    48   26   31 1
    49   26   27 ar
    50   27   28 1
    51   28   29 2
    52   28   30 am
    53   30   31 am
    54   30   50 1
    55   31   32 2
@<TRIPOS>MOLECULE
CHEMBL529897
   51    56     0     0     0
SMALL
USER_CHARGES

@<TRIPOS>ATOM
      1 C1         -0.0166    1.3753    0.0096 C.ar      1 <0>        -0.1151
      2 C2          1.1702    2.0869    0.0021 C.ar      1 <0>        -0.0911
      3 C3          2.3823    1.4213   -0.0135 C.ar      1 <0>        -0.1068
      4 C4          2.4147    0.0403   -0.0213 C.ar      1 <0>        -0.0010
      5 C5          1.2208   -0.6823   -0.0133 C.ar      1 <0>        -0.0628
      6 C6          0.0021   -0.0041    0.0020 C.ar      1 <0>        -0.0869
      7 C7          1.2476   -2.1633   -0.0220 C.ar      1 <0>         0.0641
      8 C8          0.7443   -2.8623   -1.1176 C.ar      1 <0>        -0.1109
      9 C9          0.7641   -4.2503   -1.1370 C.ar      1 <0>         0.1646
     10 C10         1.2978   -4.9603   -0.0406 C.ar      1 <0>        -0.0236
     11 C11         1.1711   -6.3898   -0.3691 C.ar      1 <0>        -0.0862
     12 C12         1.5141   -7.5614    0.3052 C.ar      1 <0>        -0.0729
     13 C13         1.2616   -8.7878   -0.2800 C.ar      1 <0>         0.0915
     14 C14         0.6683   -8.8531   -1.5363 C.ar      1 <0>        -0.0929
     15 C15         0.3265   -7.7006   -2.2102 C.ar      1 <0>        -0.1277
     16 C16         0.5722   -6.4571   -1.6364 C.ar      1 <0>         0.1294
     17 N1          0.3368   -5.1656   -2.0786 N.pl3     1 <0>        -0.5036
     18 C17        -0.2788   -4.8200   -3.3623 C.3       1 <0>         0.1026
     19 C18         0.8102   -4.6727   -4.4269 C.3       1 <0>         0.0689
     20 N2          0.1946   -4.3270   -5.7106 N.pl3     1 <0>        -0.4086
     21 C19        -0.2453   -5.2060   -6.6632 C.2       1 <0>         0.0254
     22 C20        -0.7388   -4.4681   -7.6760 C.2       1 <0>         0.0089
     23 N3         -0.6038   -3.1739   -7.3506 N.pl3     1 <0>        -0.4734
     24 C21        -0.0501   -3.0819   -6.1725 C.cat     1 <0>         0.2901
     25 O1          1.5943   -9.9330    0.3737 O.3       1 <0>        -0.4913
     26 C22         1.8044   -4.2673    1.0595 C.ar      1 <0>        -0.0744
     27 C23         1.7840   -2.8596    1.0679 C.ar      1 <0>        -0.1406
     28 C24         2.3884   -2.4533    2.3485 C.2       1 <0>         0.5756
     29 O2          2.5449   -1.3094    2.7274 O.2       1 <0>        -0.4395
     30 N4          2.7379   -3.5599    3.0287 N.am      1 <0>        -0.6783
     31 C25         2.4184   -4.6701    2.3393 C.2       1 <0>         0.5765
     32 O3          2.6139   -5.8124    2.7038 O.2       1 <0>        -0.4500
     33 Cl1         3.9368   -0.7943   -0.0415 Cl        1 <0>        -0.0593
     34 H1         -0.9598    1.9012    0.0260 H         1 <0>         0.1351
     35 H2          1.1498    3.1667    0.0081 H         1 <0>         0.1374
     36 H3          3.3052    1.9822   -0.0201 H         1 <0>         0.1393
     37 H4         -0.9252   -0.5577    0.0083 H         1 <0>         0.1339
     38 H5          0.3356   -2.3202   -1.9575 H         1 <0>         0.1411
     39 H6          1.9754   -7.5105    1.2804 H         1 <0>         0.1518
     40 H7          0.4742   -9.8149   -1.9876 H         1 <0>         0.1435
     41 H8         -0.1334   -7.7627   -3.1854 H         1 <0>         0.1291
     42 H9         -0.9710   -5.6085   -3.6574 H         1 <0>         0.1093
     43 H10        -0.8204   -3.8791   -3.2640 H         1 <0>         0.1055
     44 H11         1.5024   -3.8841   -4.1319 H         1 <0>         0.1292
     45 H12         1.3518   -5.6135   -4.5253 H         1 <0>         0.1331
     46 H13        -0.2043   -6.2840   -6.6126 H         1 <0>         0.2247
     47 H14        -1.1680   -4.8513   -8.5899 H         1 <0>         0.2261
     48 H15         0.1773   -2.1622   -5.6540 H         1 <0>         0.2610
     49 H16         0.8923  -10.2803    0.9408 H         1 <0>         0.3966
     50 H17         3.1568   -3.5579    3.9036 H         1 <0>         0.4356
     51 H18        -0.8780   -2.4247   -7.9023 H         1 <0>         0.4672
@<TRIPOS>BOND
     1    1    6 ar
     2    1    2 ar
     3    1   34 1
     4    2    3 ar
     5    2   35 1
     6    3    4 ar
     7    3   36 1
     8    4    5 ar
     9    4   33 1
    10    5    6 ar
    11    5    7 1
    12    6   37 1
    13    7   27 ar
    14    7    8 ar
    15    8    9 ar
    16    8   38 1
    17    9   17 1
    18    9   10 ar
    19   10   11 1
    20   10   26 ar
    21   11   16 ar
    22   11   12 ar
    23   12   13 ar
    24   12   39 1
    25   13   14 ar
    26   13   25 1
    27   14   15 ar
    28   14   40 1
    29   15   16 ar
    30   15   41 1
    31   16   17 1
    32   17   18 1
    33   18   19 1
    34   18   42 1
    35   18   43 1
    36   19   20 1
    37   19   44 1
    38   19   45 1
    39   20   24 1
    40   20   21 1
    41   21   22 2
    42   21   46 1
    43   22   23 1
    44   22   47 1
    45   23   24 2
    46   23   51 1
    47   24   48 1
    48   25   49 1
    49   26   31 1
    50   26   27 ar
    51   27   28 1
    52   28   29 2
    53   28   30 am
    54   30   31 am
    55   30   50 1
    56   31   32 2
@<TRIPOS>MOLECULE
CHEMBL272351
   63    68     0     0     0
SMALL
USER_CHARGES

@<TRIPOS>ATOM
      1 C1         -0.0178    1.4608    0.0101 C.3       1 <0>         0.0783
      2 N1          0.0021   -0.0041    0.0020 N.pl3     1 <0>        -0.5013
      3 C2          0.0074   -0.7868   -1.1362 C.ar      1 <0>         0.1671
      4 C3         -0.0033   -0.4622   -2.4857 C.ar      1 <0>        -0.1014
      5 C4          0.0054   -1.4643   -3.4545 C.ar      1 <0>         0.0531
      6 C5          0.0255   -2.8109   -3.0713 C.ar      1 <0>        -0.1480
      7 C6          0.0369   -3.1507   -1.7050 C.ar      1 <0>        -0.0862
      8 C7          0.0277   -2.1412   -0.7407 C.ar      1 <0>        -0.0181
      9 C8          0.0345   -2.1458    0.7308 C.ar      1 <0>        -0.1334
     10 C9          0.0242   -0.8014    1.1348 C.ar      1 <0>         0.1837
     11 C10         0.0335   -0.4963    2.4912 C.ar      1 <0>        -0.2284
     12 C11         0.0566   -1.5115    3.4301 C.ar      1 <0>         0.1593
     13 C12         0.0708   -2.8474    3.0272 C.ar      1 <0>         0.0528
     14 C13         0.0521   -3.1652    1.6841 C.ar      1 <0>        -0.0341
     15 O1          0.0936   -3.8382    3.9596 O.3       1 <0>        -0.4787
     16 O2          0.0661   -1.2059    4.7545 O.3       1 <0>        -0.2945
     17 C14         0.0511    0.1805    5.1006 C.3       1 <0>         0.0573
     18 C15         0.0647    0.3262    6.6235 C.3       1 <0>        -0.1166
     19 C16         0.0486    1.8106    6.9940 C.3       1 <0>         0.0595
     20 N2          0.0617    1.9505    8.4563 N.3       1 <0>        -0.5362
     21 C17        -1.1830    1.4361    9.0459 C.3       1 <0>         0.0128
     22 C18        -1.1024    1.5460   10.5708 C.3       1 <0>         0.0623
     23 O3         -0.8536    2.9070   10.9332 O.3       1 <0>        -0.3852
     24 C19         0.3512    3.4399   10.3766 C.3       1 <0>         0.0625
     25 C20         0.2854    3.3492    8.8497 C.3       1 <0>         0.0176
     26 C21         0.0571   -4.6245   -1.6549 C.2       1 <0>         0.5799
     27 O4          0.0709   -5.3000   -0.6450 O.2       1 <0>        -0.4571
     28 N3          0.0572   -5.0954   -2.9150 N.am      1 <0>        -0.6806
     29 C22         0.0391   -4.0876   -3.8059 C.2       1 <0>         0.5792
     30 O5          0.0343   -4.2101   -5.0149 O.2       1 <0>        -0.4481
     31 C23        -0.0071   -1.1042   -4.8911 C.ar      1 <0>        -0.0536
     32 C24         1.0764   -0.4295   -5.4535 C.ar      1 <0>        -0.0863
     33 C25         1.0592   -0.0972   -6.7924 C.ar      1 <0>        -0.1159
     34 C26        -0.0299   -0.4316   -7.5778 C.ar      1 <0>        -0.0960
     35 C27        -1.1080   -1.1000   -7.0271 C.ar      1 <0>        -0.1090
     36 C28        -1.1007   -1.4436   -5.6891 C.ar      1 <0>        -0.0003
     37 Cl1        -2.4512   -2.2896   -5.0005 Cl        1 <0>        -0.0613
     38 H1          1.0048    1.8381    0.0023 H         1 <0>         0.0750
     39 H2         -0.5450    1.8219   -0.8730 H         1 <0>         0.0874
     40 H3         -0.5280    1.8123    0.9069 H         1 <0>         0.0856
     41 H4         -0.0188    0.5747   -2.7874 H         1 <0>         0.1449
     42 H5          0.0230    0.5349    2.8122 H         1 <0>         0.1369
     43 H6          0.0647   -4.1989    1.3717 H         1 <0>         0.1562
     44 H7         -0.7831   -4.1366    4.2378 H         1 <0>         0.3866
     45 H8          0.9304    0.6692    4.6809 H         1 <0>         0.0663
     46 H9         -0.8494    0.6454    4.6991 H         1 <0>         0.0632
     47 H10        -0.8146   -0.1626    7.0432 H         1 <0>         0.0763
     48 H11         0.9651   -0.1388    7.0250 H         1 <0>         0.0869
     49 H12         0.9279    2.2993    6.5744 H         1 <0>         0.0804
     50 H13        -0.8518    2.2755    6.5926 H         1 <0>         0.0389
     51 H14        -2.0271    2.0224    8.6828 H         1 <0>         0.0442
     52 H15        -1.3155    0.3920    8.7627 H         1 <0>         0.0906
     53 H16        -2.0451    1.2191   11.0095 H         1 <0>         0.0997
     54 H17        -0.2916    0.9173   10.9387 H         1 <0>         0.0616
     55 H18         0.4598    4.4826   10.6749 H         1 <0>         0.0997
     56 H19         1.2043    2.8663   10.7389 H         1 <0>         0.0615
     57 H20         1.2246    3.7015    8.4234 H         1 <0>         0.0879
     58 H21        -0.5353    3.9660    8.4835 H         1 <0>         0.0442
     59 H22         0.0687   -6.0365   -3.1500 H         1 <0>         0.4315
     60 H23         1.9271   -0.1675   -4.8420 H         1 <0>         0.1345
     61 H24         1.8977    0.4255   -7.2284 H         1 <0>         0.1334
     62 H25        -0.0382   -0.1690   -8.6254 H         1 <0>         0.1346
     63 H26        -1.9554   -1.3576   -7.6452 H         1 <0>         0.1368
@<TRIPOS>BOND
     1    1    2 1
     2    1   38 1
     3    1   39 1
     4    1   40 1
     5    2   10 1
     6    2    3 1
     7    3    8 ar
     8    3    4 ar
     9    4    5 ar
    10    4   41 1
    11    5    6 ar
    12    5   31 1
    13    6   29 1
    14    6    7 ar
    15    7    8 ar
    16    7   26 1
    17    8    9 1
    18    9   14 ar
    19    9   10 ar
    20   10   11 ar
    21   11   12 ar
    22   11   42 1
    23   12   13 ar
    24   12   16 1
    25   13   14 ar
    26   13   15 1
    27   14   43 1
    28   15   44 1
    29   16   17 1
    30   17   18 1
    31   17   45 1
    32   17   46 1
    33   18   19 1
    34   18   47 1
    35   18   48 1
    36   19   20 1
    37   19   49 1
    38   19   50 1
    39   20   25 1
    40   20   21 1
    41   21   22 1
    42   21   51 1
    43   21   52 1
    44   22   23 1
    45   22   53 1
    46   22   54 1
    47   23   24 1
    48   24   25 1
    49   24   55 1
    50   24   56 1
    51   25   57 1
    52   25   58 1
    53   26   27 2
    54   26   28 am
    55   28   29 am
    56   28   59 1
    57   29   30 2
    58   31   36 ar
    59   31   32 ar
    60   32   33 ar
    61   32   60 1
    62   33   34 ar
    63   33   61 1
    64   34   35 ar
    65   34   62 1
    66   35   36 ar
    67   35   63 1
    68   36   37 1
@<TRIPOS>MOLECULE
CHEMBL272351
   64    69     0     0     0
SMALL
USER_CHARGES

@<TRIPOS>ATOM
      1 C1         -0.0178    1.4608    0.0101 C.3       1 <0>         0.0788
      2 N1          0.0021   -0.0041    0.0020 N.pl3     1 <0>        -0.5015
      3 C2          0.0074   -0.7868   -1.1362 C.ar      1 <0>         0.1658
      4 C3         -0.0033   -0.4622   -2.4857 C.ar      1 <0>        -0.0997
      5 C4          0.0054   -1.4643   -3.4545 C.ar      1 <0>         0.0596
      6 C5          0.0255   -2.8109   -3.0713 C.ar      1 <0>        -0.1424
      7 C6          0.0369   -3.1507   -1.7050 C.ar      1 <0>        -0.0835
      8 C7          0.0277   -2.1412   -0.7407 C.ar      1 <0>        -0.0244
      9 C8          0.0345   -2.1458    0.7308 C.ar      1 <0>        -0.1223
     10 C9          0.0242   -0.8014    1.1348 C.ar      1 <0>         0.1826
     11 C10         0.0335   -0.4963    2.4912 C.ar      1 <0>        -0.2254
     12 C11         0.0566   -1.5115    3.4301 C.ar      1 <0>         0.1472
     13 C12         0.0708   -2.8474    3.0272 C.ar      1 <0>         0.0552
     14 C13         0.0521   -3.1652    1.6841 C.ar      1 <0>        -0.0310
     15 O1          0.0936   -3.8382    3.9596 O.3       1 <0>        -0.4793
     16 O2          0.0661   -1.2059    4.7545 O.3       1 <0>        -0.2958
     17 C14         0.0511    0.1805    5.1006 C.3       1 <0>         0.0589
     18 C15         0.0647    0.3262    6.6235 C.3       1 <0>        -0.1512
     19 C16         0.0486    1.8106    6.9940 C.3       1 <0>        -0.0052
     20 N2          0.0617    1.9505    8.4563 N.4       1 <0>        -0.3845
     21 C17        -1.1814    1.3986    9.0124 C.3       1 <0>        -0.0500
     22 C18        -1.1653    1.5453   10.5360 C.3       1 <0>         0.0361
     23 O3         -1.0054    2.9256   10.8751 O.3       1 <0>        -0.3561
     24 C19         0.1807    3.5154   10.3355 C.3       1 <0>         0.0354
     25 C20         0.1671    3.3724    8.8115 C.3       1 <0>        -0.0432
     26 C21         0.0571   -4.6245   -1.6549 C.2       1 <0>         0.5805
     27 O4          0.0709   -5.3000   -0.6450 O.2       1 <0>        -0.4584
     28 N3          0.0572   -5.0954   -2.9150 N.am      1 <0>        -0.6793
     29 C22         0.0391   -4.0876   -3.8059 C.2       1 <0>         0.5769
     30 O5          0.0343   -4.2101   -5.0149 O.2       1 <0>        -0.4411
     31 C23        -0.0071   -1.1042   -4.8911 C.ar      1 <0>        -0.0599
     32 C24         1.0764   -0.4295   -5.4535 C.ar      1 <0>        -0.0857
     33 C25         1.0592   -0.0972   -6.7924 C.ar      1 <0>        -0.1151
     34 C26        -0.0299   -0.4316   -7.5778 C.ar      1 <0>        -0.0927
     35 C27        -1.1080   -1.1000   -7.0271 C.ar      1 <0>        -0.1079
     36 C28        -1.1007   -1.4436   -5.6891 C.ar      1 <0>         0.0001
     37 Cl1        -2.4512   -2.2896   -5.0005 Cl        1 <0>        -0.0615
     38 H1          1.0048    1.8381    0.0023 H         1 <0>         0.0753
     39 H2         -0.5450    1.8219   -0.8730 H         1 <0>         0.0897
     40 H3         -0.5280    1.8123    0.9069 H         1 <0>         0.0828
     41 H4         -0.0188    0.5747   -2.7874 H         1 <0>         0.1466
     42 H5          0.0230    0.5349    2.8122 H         1 <0>         0.1342
     43 H6          0.0647   -4.1989    1.3717 H         1 <0>         0.1595
     44 H7         -0.7831   -4.1366    4.2378 H         1 <0>         0.3878
     45 H8          0.9304    0.6692    4.6809 H         1 <0>         0.0745
     46 H9         -0.8494    0.6454    4.6991 H         1 <0>         0.0737
     47 H10        -0.8146   -0.1626    7.0432 H         1 <0>         0.1002
     48 H11         0.9651   -0.1388    7.0250 H         1 <0>         0.1018
     49 H12         0.9279    2.2993    6.5744 H         1 <0>         0.1371
     50 H13        -0.8518    2.2755    6.5926 H         1 <0>         0.1348
     51 H14        -2.0345    1.9404    8.6040 H         1 <0>         0.1404
     52 H15        -1.2605    0.3437    8.7495 H         1 <0>         0.1449
     53 H16        -2.1047    1.1759   10.9472 H         1 <0>         0.1430
     54 H17        -0.3358    0.9708   10.9482 H         1 <0>         0.0824
     55 H18         0.2154    4.5719   10.6016 H         1 <0>         0.1430
     56 H19         1.0563    3.0083   10.7409 H         1 <0>         0.0822
     57 H20         1.0890    3.7827    8.3995 H         1 <0>         0.1437
     58 H21        -0.6865    3.9134    8.4032 H         1 <0>         0.1398
     59 H22         0.0687   -6.0365   -3.1500 H         1 <0>         0.4336
     60 H23         1.9271   -0.1675   -4.8420 H         1 <0>         0.1342
     61 H24         1.8977    0.4255   -7.2284 H         1 <0>         0.1347
     62 H25        -0.0382   -0.1690   -8.6254 H         1 <0>         0.1365
     63 H26        -1.9554   -1.3576   -7.6452 H         1 <0>         0.1384
     64 H27         0.8514    1.4496    8.8352 H         1 <0>         0.4251
@<TRIPOS>BOND
     1    1    2 1
     2    1   38 1
     3    1   39 1
     4    1   40 1
     5    2   10 1
     6    2    3 1
     7    3    8 ar
     8    3    4 ar
     9    4    5 ar
    10    4   41 1
    11    5    6 ar
    12    5   31 1
    13    6   29 1
    14    6    7 ar
    15    7    8 ar
    16    7   26 1
    17    8    9 1
    18    9   14 ar
    19    9   10 ar
    20   10   11 ar
    21   11   12 ar
    22   11   42 1
    23   12   13 ar
    24   12   16 1
    25   13   14 ar
    26   13   15 1
    27   14   43 1
    28   15   44 1
    29   16   17 1
    30   17   18 1
    31   17   45 1
    32   17   46 1
    33   18   19 1
    34   18   47 1
    35   18   48 1
    36   19   20 1
    37   19   49 1
    38   19   50 1
    39   20   25 1
    40   20   21 1
    41   20   64 1
    42   21   22 1
    43   21   51 1
    44   21   52 1
    45   22   23 1
    46   22   53 1
    47   22   54 1
    48   23   24 1
    49   24   25 1
    50   24   55 1
    51   24   56 1
    52   25   57 1
    53   25   58 1
    54   26   27 2
    55   26   28 am
    56   28   29 am
    57   28   59 1
    58   29   30 2
    59   31   36 ar
    60   31   32 ar
    61   32   33 ar
    62   32   60 1
    63   33   34 ar
    64   33   61 1
    65   34   35 ar
    66   34   62 1
    67   35   36 ar
    68   35   63 1
    69   36   37 1
@<TRIPOS>MOLECULE
CHEMBL607707
   57    59     0     0     0
SMALL
USER_CHARGES

@<TRIPOS>ATOM
      1 C1          3.4767   -2.0813    3.6658 C.3       1 <0>        -0.1532
      2 C2          2.7063   -2.8025    2.5580 C.3       1 <0>         0.0507
      3 O1          1.3931   -3.1228    3.0218 O.3       1 <0>        -0.3142
      4 C3          0.5732   -3.7702    2.1536 C.ar      1 <0>         0.1537
      5 C4          1.0297   -4.0892    0.8956 C.ar      1 <0>        -0.1843
      6 C5          0.1876   -4.7579   -0.0058 C.ar      1 <0>         0.1848
      7 C6         -1.1275   -5.0964    0.3956 C.ar      1 <0>        -0.1267
      8 C7         -1.5748   -4.7633    1.6822 C.ar      1 <0>        -0.0578
      9 C8         -0.7286   -4.1117    2.5513 C.ar      1 <0>         0.1161
     10 N1         -1.1714   -3.7834    3.8381 N.am      1 <0>        -0.6443
     11 C9         -2.4807   -3.5562    4.0627 C.2       1 <0>         0.5354
     12 O2         -3.2906   -3.7366    3.1733 O.2       1 <0>        -0.5106
     13 C10        -2.9303   -3.0903    5.3832 C.2       1 <0>        -0.1308
     14 C11        -4.2225   -2.8661    5.6049 C.2       1 <0>        -0.1434
     15 C12        -4.6832   -2.3887    6.9580 C.3       1 <0>         0.0246
     16 N2         -5.4548   -1.1483    6.8029 N.4       1 <0>        -0.3863
     17 C13        -6.0044   -0.7476    8.1050 C.3       1 <0>        -0.0479
     18 C14        -4.5770   -0.0860    6.2941 C.3       1 <0>        -0.0515
     19 C15        -1.9721   -5.7705   -0.5170 C.ar      1 <0>         0.2764
     20 C16        -1.4562   -6.0716   -1.7867 C.ar      1 <0>        -0.0898
     21 C17        -0.1393   -5.6978   -2.0994 C.ar      1 <0>         0.1961
     22 N3          0.6205   -5.0750   -1.2351 N.ar      1 <0>        -0.4680
     23 C18        -2.2639   -6.7532   -2.7530 C.1       1 <0>         0.2470
     24 N4         -2.9046   -7.2940   -3.5195 N.1       1 <0>        -0.3829
     25 N5         -3.2614   -6.1209   -0.1699 N.pl3     1 <0>        -0.7004
     26 C19        -3.5484   -7.4328    0.2202 C.ar      1 <0>         0.2008
     27 C20        -2.5224   -8.2797    0.6202 C.ar      1 <0>        -0.1440
     28 C21        -2.8075   -9.5748    1.0056 C.ar      1 <0>        -0.0965
     29 C22        -4.1152  -10.0301    0.9938 C.ar      1 <0>         0.0723
     30 C23        -5.1405   -9.1877    0.5949 C.ar      1 <0>        -0.0323
     31 C24        -4.8600   -7.8889    0.2139 C.ar      1 <0>        -0.1376
     32 Cl1        -6.7788   -9.7616    0.5801 Cl        1 <0>        -0.0386
     33 F1         -4.3916  -11.2975    1.3713 F         1 <0>        -0.1254
     34 H1          4.4783   -1.8370    3.3120 H         1 <0>         0.0859
     35 H2          2.9527   -1.1642    3.9350 H         1 <0>         0.0661
     36 H3          3.5479   -2.7289    4.5397 H         1 <0>         0.0679
     37 H4          2.6350   -2.1549    1.6841 H         1 <0>         0.0717
     38 H5          3.2303   -3.7196    2.2888 H         1 <0>         0.0729
     39 H6          2.0348   -3.8249    0.6020 H         1 <0>         0.1559
     40 H7         -2.5772   -5.0201    1.9913 H         1 <0>         0.1715
     41 H8         -0.5358   -3.7193    4.5681 H         1 <0>         0.4220
     42 H9         -2.2112   -2.9301    6.1729 H         1 <0>         0.1451
     43 H10        -4.9416   -3.0263    4.8151 H         1 <0>         0.1542
     44 H11        -5.3108   -3.1518    7.4182 H         1 <0>         0.1478
     45 H12        -3.8163   -2.2006    7.5914 H         1 <0>         0.1373
     46 H13        -5.1885   -0.5824    8.8085 H         1 <0>         0.1234
     47 H14        -6.5770    0.1728    7.9899 H         1 <0>         0.1271
     48 H15        -6.6557   -1.5358    8.4825 H         1 <0>         0.1256
     49 H16        -3.7610    0.0793    6.9977 H         1 <0>         0.1233
     50 H17        -4.1692   -0.3833    5.3280 H         1 <0>         0.1224
     51 H18        -5.1495    0.8344    6.1791 H         1 <0>         0.1270
     52 H19         0.2563   -5.9307   -3.0770 H         1 <0>         0.1779
     53 H20        -3.9683   -5.4572   -0.1966 H         1 <0>         0.4219
     54 H21        -1.5021   -7.9256    0.6293 H         1 <0>         0.1362
     55 H22        -2.0098  -10.2333    1.3162 H         1 <0>         0.1501
     56 H23        -5.6596   -7.2308   -0.0924 H         1 <0>         0.1454
     57 H24        -6.2101   -1.3012    6.1517 H         1 <0>         0.4302
@<TRIPOS>BOND
     1    1    2 1
     2    1   34 1
     3    1   35 1
     4    1   36 1
     5    2    3 1
     6    2   37 1
     7    2   38 1
     8    3    4 1
     9    4    9 ar
    10    4    5 ar
    11    5    6 ar
    12    5   39 1
    13    6   22 ar
    14    6    7 ar
    15    7    8 ar
    16    7   19 ar
    17    8    9 ar
    18    8   40 1
    19    9   10 1
    20   10   11 am
    21   10   41 1
    22   11   12 2
    23   11   13 1
    24   13   14 2
    25   13   42 1
    26   14   15 1
    27   14   43 1
    28   15   16 1
    29   15   44 1
    30   15   45 1
    31   16   17 1
    32   16   18 1
    33   16   57 1
    34   17   46 1
    35   17   47 1
    36   17   48 1
    37   18   49 1
    38   18   50 1
    39   18   51 1
    40   19   20 ar
    41   19   25 1
    42   20   21 ar
    43   20   23 1
    44   21   22 ar
    45   21   52 1
    46   23   24 3
    47   25   26 1
    48   25   53 1
    49   26   31 ar
    50   26   27 ar
    51   27   28 ar
    52   27   54 1
    53   28   29 ar
    54   28   55 1
    55   29   30 ar
    56   29   33 1
    57   30   31 ar
    58   30   32 1
    59   31   56 1
@<TRIPOS>MOLECULE
CHEMBL607707
   56    58     0     0     0
SMALL
USER_CHARGES

@<TRIPOS>ATOM
      1 C1          3.4767   -2.0813    3.6658 C.3       1 <0>        -0.1535
      2 C2          2.7063   -2.8025    2.5580 C.3       1 <0>         0.0515
      3 O1          1.3931   -3.1228    3.0218 O.3       1 <0>        -0.3108
      4 C3          0.5732   -3.7702    2.1536 C.ar      1 <0>         0.1539
      5 C4          1.0297   -4.0892    0.8956 C.ar      1 <0>        -0.1893
      6 C5          0.1876   -4.7579   -0.0058 C.ar      1 <0>         0.1796
      7 C6         -1.1275   -5.0964    0.3956 C.ar      1 <0>        -0.1223
      8 C7         -1.5748   -4.7633    1.6822 C.ar      1 <0>        -0.0678
      9 C8         -0.7286   -4.1117    2.5513 C.ar      1 <0>         0.1322
     10 N1         -1.1714   -3.7834    3.8381 N.am      1 <0>        -0.6572
     11 C9         -2.4807   -3.5562    4.0627 C.2       1 <0>         0.5511
     12 O2         -3.2906   -3.7366    3.1733 O.2       1 <0>        -0.5222
     13 C10        -2.9303   -3.0903    5.3832 C.2       1 <0>        -0.2244
     14 C11        -4.2225   -2.8661    5.6049 C.2       1 <0>        -0.0338
     15 C12        -4.6832   -2.3887    6.9580 C.3       1 <0>         0.0699
     16 N2         -5.4548   -1.1483    6.8029 N.3       1 <0>        -0.5440
     17 C13        -6.1183   -0.7804    8.0608 C.3       1 <0>         0.0225
     18 C14        -4.6019   -0.0549    6.3182 C.3       1 <0>         0.0200
     19 C15        -1.9721   -5.7705   -0.5170 C.ar      1 <0>         0.2776
     20 C16        -1.4562   -6.0716   -1.7867 C.ar      1 <0>        -0.0970
     21 C17        -0.1393   -5.6978   -2.0994 C.ar      1 <0>         0.1888
     22 N3          0.6205   -5.0750   -1.2351 N.ar      1 <0>        -0.4689
     23 C18        -2.2639   -6.7532   -2.7530 C.1       1 <0>         0.2533
     24 N4         -2.9046   -7.2940   -3.5195 N.1       1 <0>        -0.3930
     25 N5         -3.2614   -6.1209   -0.1699 N.pl3     1 <0>        -0.6996
     26 C19        -3.5484   -7.4328    0.2202 C.ar      1 <0>         0.2052
     27 C20        -2.5224   -8.2797    0.6202 C.ar      1 <0>        -0.1442
     28 C21        -2.8075   -9.5748    1.0056 C.ar      1 <0>        -0.0967
     29 C22        -4.1152  -10.0301    0.9938 C.ar      1 <0>         0.0685
     30 C23        -5.1405   -9.1877    0.5949 C.ar      1 <0>        -0.0306
     31 C24        -4.8600   -7.8889    0.2139 C.ar      1 <0>        -0.1374
     32 Cl1        -6.7788   -9.7616    0.5801 Cl        1 <0>        -0.0417
     33 F1         -4.3916  -11.2975    1.3713 F         1 <0>        -0.1279
     34 H1          4.4783   -1.8370    3.3120 H         1 <0>         0.0830
     35 H2          2.9527   -1.1642    3.9350 H         1 <0>         0.0675
     36 H3          3.5479   -2.7289    4.5397 H         1 <0>         0.0678
     37 H4          2.6350   -2.1549    1.6841 H         1 <0>         0.0699
     38 H5          3.2303   -3.7196    2.2888 H         1 <0>         0.0704
     39 H6          2.0348   -3.8249    0.6020 H         1 <0>         0.1530
     40 H7         -2.5772   -5.0201    1.9913 H         1 <0>         0.1737
     41 H8         -0.5358   -3.7193    4.5681 H         1 <0>         0.4195
     42 H9         -2.2112   -2.9301    6.1729 H         1 <0>         0.1299
     43 H10        -4.9416   -3.0263    4.8151 H         1 <0>         0.1360
     44 H11        -5.3108   -3.1518    7.4182 H         1 <0>         0.0975
     45 H12        -3.8163   -2.2006    7.5914 H         1 <0>         0.0477
     46 H13        -5.3680   -0.6305    8.8371 H         1 <0>         0.0284
     47 H14        -6.6824    0.1413    7.9180 H         1 <0>         0.0730
     48 H15        -6.7969   -1.5789    8.3608 H         1 <0>         0.0718
     49 H16        -4.1780   -0.3259    5.3513 H         1 <0>         0.0699
     50 H17        -5.1982    0.8514    6.2124 H         1 <0>         0.0719
     51 H18        -3.7966    0.1213    7.0314 H         1 <0>         0.0284
     52 H19         0.2563   -5.9307   -3.0770 H         1 <0>         0.1742
     53 H20        -3.9683   -5.4572   -0.1966 H         1 <0>         0.4235
     54 H21        -1.5021   -7.9256    0.6293 H         1 <0>         0.1364
     55 H22        -2.0098  -10.2333    1.3162 H         1 <0>         0.1486
     56 H23        -5.6596   -7.2308   -0.0924 H         1 <0>         0.1461
@<TRIPOS>BOND
     1    1    2 1
     2    1   34 1
     3    1   35 1
     4    1   36 1
     5    2    3 1
     6    2   37 1
     7    2   38 1
     8    3    4 1
     9    4    9 ar
    10    4    5 ar
    11    5    6 ar
    12    5   39 1
    13    6   22 ar
    14    6    7 ar
    15    7    8 ar
    16    7   19 ar
    17    8    9 ar
    18    8   40 1
    19    9   10 1
    20   10   11 am
    21   10   41 1
    22   11   12 2
    23   11   13 1
    24   13   14 2
    25   13   42 1
    26   14   15 1
    27   14   43 1
    28   15   16 1
    29   15   44 1
    30   15   45 1
    31   16   17 1
    32   16   18 1
    33   17   46 1
    34   17   47 1
    35   17   48 1
    36   18   49 1
    37   18   50 1
    38   18   51 1
    39   19   20 ar
    40   19   25 1
    41   20   21 ar
    42   20   23 1
    43   21   22 ar
    44   21   52 1
    45   23   24 3
    46   25   26 1
    47   25   53 1
    48   26   31 ar
    49   26   27 ar
    50   27   28 ar
    51   27   54 1
    52   28   29 ar
    53   28   55 1
    54   29   30 ar
    55   29   33 1
    56   30   31 ar
    57   30   32 1
    58   31   56 1
@<TRIPOS>MOLECULE
CHEMBL362692
   75    79     0     0     0
SMALL
USER_CHARGES

@<TRIPOS>ATOM
      1 C1         -0.3717    1.2406   -1.3588 C.3       1 <0>         0.0695
      2 N1         -0.4932   -0.0185   -2.0977 N.am      1 <0>        -0.5060
      3 C2         -1.7091   -0.6502   -2.1677 C.ar      1 <0>         0.4665
      4 C3         -1.8434   -1.8640   -2.8761 C.ar      1 <0>        -0.2736
      5 C4         -0.7243   -2.4393   -3.5201 C.2       1 <0>         0.0271
      6 C5          0.4850   -1.8017   -3.4449 C.2       1 <0>        -0.1582
      7 C6          0.5887   -0.5414   -2.7062 C.2       1 <0>         0.5564
      8 O1          1.6599    0.0347   -2.6381 O.2       1 <0>        -0.4990
      9 C7          1.6770   -2.3793   -4.1087 C.ar      1 <0>        -0.0128
     10 C8          2.4992   -3.2718   -3.4198 C.ar      1 <0>        -0.0065
     11 C9          3.6086   -3.8070   -4.0446 C.ar      1 <0>        -0.1058
     12 C10         3.9057   -3.4596   -5.3502 C.ar      1 <0>        -0.0861
     13 C11         3.0950   -2.5750   -6.0386 C.ar      1 <0>        -0.1054
     14 C12         1.9791   -2.0375   -5.4275 C.ar      1 <0>        -0.0065
     15 Cl1         0.9591   -0.9331   -6.2954 Cl        1 <0>        -0.0501
     16 Cl2         2.1287   -3.7082   -1.7809 Cl        1 <0>        -0.0513
     17 C13        -3.1043   -2.4773   -2.9236 C.ar      1 <0>         0.2630
     18 N2         -4.1139   -1.8948   -2.3043 N.ar      1 <0>        -0.5692
     19 C14        -3.9504   -0.7520   -1.6470 C.ar      1 <0>         0.6072
     20 N3         -2.7804   -0.1361   -1.5742 N.ar      1 <0>        -0.5935
     21 N4         -5.0413   -0.1852   -1.0161 N.pl3     1 <0>        -0.6301
     22 C15        -6.2590   -0.8706   -0.9750 C.ar      1 <0>         0.1607
     23 C16        -6.2763   -2.2499   -0.8115 C.ar      1 <0>        -0.1036
     24 C17        -7.4810   -2.9239   -0.7714 C.ar      1 <0>        -0.0956
     25 C18        -8.6693   -2.2273   -0.8942 C.ar      1 <0>        -0.1019
     26 C19        -8.6556   -0.8542   -1.0574 C.ar      1 <0>        -0.0941
     27 C20        -7.4546   -0.1732   -1.0918 C.ar      1 <0>        -0.1384
     28 C21        -9.9819   -2.9662   -0.8504 C.3       1 <0>        -0.0761
     29 C22       -10.4743   -3.0461    0.5960 C.3       1 <0>        -0.1076
     30 C23       -11.8070   -3.7963    0.6404 C.3       1 <0>        -0.1126
     31 C24       -12.2919   -3.8749    2.0651 C.2       1 <0>         0.4666
     32 O2        -11.6386   -3.3815    2.9538 O.2       1 <0>        -0.4825
     33 O3        -13.4496   -4.4930    2.3469 O.3       1 <0>        -0.3725
     34 C25       -13.8483   -4.5300    3.7186 C.3       1 <0>         0.0299
     35 C26       -15.1818   -5.2697    3.8425 C.3       1 <0>        -0.0009
     36 N5        -15.0094   -6.6647    3.4158 N.4       1 <0>        -0.3844
     37 C27       -16.3164   -7.3324    3.3912 C.3       1 <0>        -0.0071
     38 C28       -16.1534   -8.7618    2.8700 C.3       1 <0>        -0.1464
     39 C29       -15.2030   -9.5305    3.7925 C.3       1 <0>        -0.1394
     40 C30       -13.8676   -8.7849    3.8691 C.3       1 <0>        -0.1451
     41 C31       -14.1152   -7.3547    4.3533 C.3       1 <0>        -0.0143
     42 H1          0.6569    1.5969   -1.4146 H         1 <0>         0.1016
     43 H2         -1.0379    1.9843   -1.7961 H         1 <0>         0.0805
     44 H3         -0.6437    1.0776   -0.3160 H         1 <0>         0.0803
     45 H4         -0.8216   -3.3678   -4.0630 H         1 <0>         0.1510
     46 H5          4.2458   -4.4979   -3.5126 H         1 <0>         0.1444
     47 H6          4.7746   -3.8806   -5.8341 H         1 <0>         0.1464
     48 H7          3.3329   -2.3074   -7.0575 H         1 <0>         0.1446
     49 H8         -3.2459   -3.4062   -3.4561 H         1 <0>         0.1878
     50 H9         -4.9621    0.6882   -0.6017 H         1 <0>         0.4269
     51 H10        -5.3486   -2.7947   -0.7163 H         1 <0>         0.1313
     52 H11        -7.4951   -3.9964   -0.6443 H         1 <0>         0.1242
     53 H12        -9.5854   -0.3131   -1.1534 H         1 <0>         0.1259
     54 H13        -7.4448    0.8997   -1.2145 H         1 <0>         0.1269
     55 H14       -10.7174   -2.4365   -1.4558 H         1 <0>         0.0766
     56 H15        -9.8451   -3.9735   -1.2438 H         1 <0>         0.0762
     57 H16        -9.7388   -3.5758    1.2015 H         1 <0>         0.0763
     58 H17       -10.6111   -2.0388    0.9894 H         1 <0>         0.0772
     59 H18       -12.5425   -3.2665    0.0350 H         1 <0>         0.1138
     60 H19       -11.6702   -4.8036    0.2471 H         1 <0>         0.1111
     61 H20       -13.0891   -5.0491    4.3037 H         1 <0>         0.0925
     62 H21       -13.9614   -3.5121    4.0917 H         1 <0>         0.1149
     63 H22       -15.5157   -5.2456    4.8798 H         1 <0>         0.1499
     64 H23       -15.9259   -4.7856    3.2100 H         1 <0>         0.1435
     65 H24       -16.7294   -7.3587    4.3996 H         1 <0>         0.1294
     66 H25       -16.9926   -6.7824    2.7368 H         1 <0>         0.1317
     67 H26       -17.1246   -9.2564    2.8542 H         1 <0>         0.1133
     68 H27       -15.7406   -8.7367    1.8615 H         1 <0>         0.0882
     69 H28       -15.6393   -9.6001    4.7889 H         1 <0>         0.0823
     70 H29       -15.0391  -10.5319    3.3943 H         1 <0>         0.0950
     71 H30       -13.2049   -9.2960    4.5674 H         1 <0>         0.1126
     72 H31       -13.4073   -8.7602    2.8813 H         1 <0>         0.0877
     73 H32       -13.1664   -6.8210    4.4092 H         1 <0>         0.1269
     74 H33       -14.5752   -7.3805    5.3412 H         1 <0>         0.1312
     75 H34       -14.6061   -6.6852    2.4911 H         1 <0>         0.4280
@<TRIPOS>BOND
     1    1    2 1
     2    1   42 1
     3    1   43 1
     4    1   44 1
     5    2    7 am
     6    2    3 1
     7    3   20 ar
     8    3    4 ar
     9    4    5 1
    10    4   17 ar
    11    5    6 2
    12    5   45 1
    13    6    7 1
    14    6    9 1
    15    7    8 2
    16    9   14 ar
    17    9   10 ar
    18   10   11 ar
    19   10   16 1
    20   11   12 ar
    21   11   46 1
    22   12   13 ar
    23   12   47 1
    24   13   14 ar
    25   13   48 1
    26   14   15 1
    27   17   18 ar
    28   17   49 1
    29   18   19 ar
    30   19   20 ar
    31   19   21 1
    32   21   22 1
    33   21   50 1
    34   22   27 ar
    35   22   23 ar
    36   23   24 ar
    37   23   51 1
    38   24   25 ar
    39   24   52 1
    40   25   26 ar
    41   25   28 1
    42   26   27 ar
    43   26   53 1
    44   27   54 1
    45   28   29 1
    46   28   55 1
    47   28   56 1
    48   29   30 1
    49   29   57 1
    50   29   58 1
    51   30   31 1
    52   30   59 1
    53   30   60 1
    54   31   32 2
    55   31   33 1
    56   33   34 1
    57   34   35 1
    58   34   61 1
    59   34   62 1
    60   35   36 1
    61   35   63 1
    62   35   64 1
    63   36   41 1
    64   36   37 1
    65   36   75 1
    66   37   38 1
    67   37   65 1
    68   37   66 1
    69   38   39 1
    70   38   67 1
    71   38   68 1
    72   39   40 1
    73   39   69 1
    74   39   70 1
    75   40   41 1
    76   40   71 1
    77   40   72 1
    78   41   73 1
    79   41   74 1
@<TRIPOS>MOLECULE
CHEMBL514192
   59    64     0     0     0
SMALL
USER_CHARGES

@<TRIPOS>ATOM
      1 C1          0.4758    1.4075   -0.0636 C.3       1 <0>         0.0727
      2 N1          0.4753   -0.0574   -0.0798 N.pl3     1 <0>        -0.4974
      3 C2          0.5675   -0.8334   -1.2184 C.ar      1 <0>         0.1837
      4 C3          0.6771   -0.5006   -2.5622 C.ar      1 <0>        -0.1056
      5 C4          0.7542   -1.4968   -3.5333 C.ar      1 <0>         0.0668
      6 C5          0.7219   -2.8459   -3.1589 C.ar      1 <0>        -0.1522
      7 C6          0.6114   -3.1934   -1.7995 C.ar      1 <0>        -0.0696
      8 C7          0.5342   -2.1898   -0.8326 C.ar      1 <0>        -0.0491
      9 C8          0.4142   -2.2029    0.6346 C.ar      1 <0>        -0.0406
     10 C9          0.3882   -0.8610    1.0453 C.ar      1 <0>         0.1181
     11 C10         0.2842   -0.5645    2.4003 C.ar      1 <0>        -0.0192
     12 C11         0.2118   -1.5818    3.3278 C.ar      1 <0>        -0.6663
     13 C12         0.2417   -2.9115    2.9224 C.ar      1 <0>         0.1746
     14 C13         0.3356   -3.2254    1.5792 C.ar      1 <0>        -0.0950
     15 O1          0.1704   -3.9051    3.8483 O.3       1 <0>        -0.4918
     16 S1          0.0809   -1.1937    5.0415 S.o2      1 <0>         2.7100
     17 O2          0.1157    0.2234    5.1408 O.2       1 <0>        -0.9536
     18 O3         -0.9966   -1.9669    5.5518 O.2       1 <0>        -0.9464
     19 N2          1.4551   -1.7536    5.7767 N.pl3     1 <0>        -1.1069
     20 C14         2.7576   -1.1809    5.4281 C.3       1 <0>         0.1023
     21 C15         3.7910   -1.5857    6.4813 C.3       1 <0>         0.1013
     22 N3          5.0936   -1.0130    6.1327 N.pl3     1 <0>        -0.4500
     23 C16         6.0398   -1.6081    5.3520 C.2       1 <0>        -0.0165
     24 C17         7.0965   -0.7752    5.2614 C.2       1 <0>        -0.1989
     25 C18         6.7914    0.3763    6.0137 C.2       1 <0>        -0.1989
     26 C19         5.5576    0.2058    6.5305 C.2       1 <0>        -0.0159
     27 C20         0.6051   -4.6684   -1.7581 C.2       1 <0>         0.5795
     28 O4          0.5224   -5.3497   -0.7557 O.2       1 <0>        -0.4551
     29 N4          0.7058   -5.1319   -3.0170 N.am      1 <0>        -0.6794
     30 C21         0.7791   -4.1186   -3.8988 C.2       1 <0>         0.5793
     31 O5          0.8756   -4.2339   -5.1046 O.2       1 <0>        -0.4439
     32 C22         0.8699   -1.1284   -4.9633 C.ar      1 <0>        -0.0585
     33 C23         2.0072   -0.4669   -5.4263 C.ar      1 <0>        -0.0847
     34 C24         2.1093   -0.1264   -6.7592 C.ar      1 <0>        -0.1154
     35 C25         1.0865   -0.4395   -7.6372 C.ar      1 <0>        -0.0937
     36 C26        -0.0441   -1.0952   -7.1854 C.ar      1 <0>        -0.1086
     37 C27        -0.1560   -1.4469   -5.8542 C.ar      1 <0>         0.0006
     38 Cl1        -1.5726   -2.2765   -5.2895 Cl        1 <0>        -0.0610
     39 H1          1.5005    1.7696    0.0193 H         1 <0>         0.0794
     40 H2          0.0319    1.7812   -0.9863 H         1 <0>         0.0905
     41 H3         -0.1047    1.7616    0.7883 H         1 <0>         0.0913
     42 H4          0.7025    0.5382   -2.8567 H         1 <0>         0.1491
     43 H5          0.2605    0.4648    2.7264 H         1 <0>         0.1539
     44 H6          0.3601   -4.2581    1.2639 H         1 <0>         0.1575
     45 H7         -0.7231   -4.2459    3.9914 H         1 <0>         0.4089
     46 H8          1.3975   -2.4608    6.4381 H         1 <0>         0.4237
     47 H9          3.0687   -1.5531    4.4520 H         1 <0>         0.0737
     48 H10         2.6795   -0.0942    5.3946 H         1 <0>         0.0885
     49 H11         3.4800   -1.2135    7.4574 H         1 <0>         0.1001
     50 H12         3.8692   -2.6724    6.5148 H         1 <0>         0.0991
     51 H13         5.9575   -2.5794    4.8870 H         1 <0>         0.1606
     52 H14         8.0088   -0.9574    4.7130 H         1 <0>         0.1351
     53 H15         7.4271    1.2391    6.1479 H         1 <0>         0.1356
     54 H16         5.0292    0.9118    7.1539 H         1 <0>         0.1621
     55 H17         0.7236   -6.0716   -3.2569 H         1 <0>         0.4330
     56 H18         2.8063   -0.2214   -4.7424 H         1 <0>         0.1352
     57 H19         2.9895    0.3862   -7.1183 H         1 <0>         0.1345
     58 H20         1.1715   -0.1702   -8.6796 H         1 <0>         0.1357
     59 H21        -0.8389   -1.3369   -7.8755 H         1 <0>         0.1377
@<TRIPOS>BOND
     1    1    2 1
     2    1   39 1
     3    1   40 1
     4    1   41 1
     5    2   10 1
     6    2    3 1
     7    3    8 ar
     8    3    4 ar
     9    4    5 ar
    10    4   42 1
    11    5    6 ar
    12    5   32 1
    13    6   30 1
    14    6    7 ar
    15    7    8 ar
    16    7   27 1
    17    8    9 1
    18    9   14 ar
    19    9   10 ar
    20   10   11 ar
    21   11   12 ar
    22   11   43 1
    23   12   13 ar
    24   12   16 1
    25   13   14 ar
    26   13   15 1
    27   14   44 1
    28   15   45 1
    29   16   17 2
    30   16   18 2
    31   16   19 1
    32   19   20 1
    33   19   46 1
    34   20   21 1
    35   20   47 1
    36   20   48 1
    37   21   22 1
    38   21   49 1
    39   21   50 1
    40   22   26 1
    41   22   23 1
    42   23   24 2
    43   23   51 1
    44   24   25 1
    45   24   52 1
    46   25   26 2
    47   25   53 1
    48   26   54 1
    49   27   28 2
    50   27   29 am
    51   29   30 am
    52   29   55 1
    53   30   31 2
    54   32   37 ar
    55   32   33 ar
    56   33   34 ar
    57   33   56 1
    58   34   35 ar
    59   34   57 1
    60   35   36 ar
    61   35   58 1
    62   36   37 ar
    63   36   59 1
    64   37   38 1
@<TRIPOS>MOLECULE
CHEMBL472689
   58    63     0     0     0
SMALL
USER_CHARGES

@<TRIPOS>ATOM
      1 C1         -0.0178    1.4608    0.0101 C.3       1 <0>         0.0770
      2 N1          0.0021   -0.0041    0.0020 N.pl3     1 <0>        -0.5008
      3 C2          0.0074   -0.7860   -1.1355 C.ar      1 <0>         0.1801
      4 C3         -0.0033   -0.4599   -2.4860 C.ar      1 <0>        -0.1061
      5 C4          0.0058   -1.4607   -3.4547 C.ar      1 <0>         0.0629
      6 C5          0.0260   -2.8084   -3.0722 C.ar      1 <0>        -0.1518
      7 C6          0.0369   -3.1488   -1.7073 C.ar      1 <0>        -0.0729
      8 C7          0.0277   -2.1403   -0.7420 C.ar      1 <0>        -0.0406
      9 C8          0.0346   -2.1478    0.7302 C.ar      1 <0>        -0.0661
     10 C9          0.0242   -0.8018    1.1359 C.ar      1 <0>         0.1317
     11 C10         0.0334   -0.4953    2.4879 C.ar      1 <0>        -0.0922
     12 C11         0.0572   -1.5184    3.4350 C.ar      1 <0>        -0.1205
     13 C12         0.0719   -2.8609    3.0242 C.ar      1 <0>         0.1423
     14 C13         0.0529   -3.1702    1.6780 C.ar      1 <0>        -0.0836
     15 O1          0.0955   -3.8544    3.9494 O.3       1 <0>        -0.4707
     16 C14         0.0675   -1.1892    4.8728 C.2       1 <0>         0.5626
     17 O2          0.0882   -2.0800    5.7003 O.2       1 <0>        -0.5046
     18 N2          0.0539    0.0988    5.2694 N.am      1 <0>        -0.7296
     19 C15         0.0641    0.4257    6.6974 C.3       1 <0>         0.1052
     20 C16         0.0451    1.9454    6.8729 C.3       1 <0>         0.0973
     21 N3          0.0553    2.2723    8.3009 N.pl3     1 <0>        -0.4496
     22 C17        -1.0470    2.4286    9.0879 C.2       1 <0>        -0.0163
     23 C18        -0.6345    2.7234   10.3375 C.2       1 <0>        -0.1974
     24 C19         0.7741    2.7500   10.3213 C.2       1 <0>        -0.1975
     25 C20         1.1688    2.4648    9.0638 C.2       1 <0>        -0.0158
     26 C21         0.0572   -4.6241   -1.6580 C.2       1 <0>         0.5785
     27 O3          0.0711   -5.3003   -0.6489 O.2       1 <0>        -0.4538
     28 N4          0.0578   -5.0937   -2.9187 N.am      1 <0>        -0.6799
     29 C22         0.0399   -4.0847   -3.8082 C.2       1 <0>         0.5791
     30 O4          0.0356   -4.2057   -5.0172 O.2       1 <0>        -0.4459
     31 C23        -0.0062   -1.0997   -4.8911 C.ar      1 <0>        -0.0569
     32 C24         1.0774   -0.4246   -5.4527 C.ar      1 <0>        -0.0853
     33 C25         1.0607   -0.0915   -6.7913 C.ar      1 <0>        -0.1157
     34 C26        -0.0282   -0.4255   -7.5774 C.ar      1 <0>        -0.0946
     35 C27        -1.1063   -1.0944   -7.0275 C.ar      1 <0>        -0.1088
     36 C28        -1.0994   -1.4388   -5.6897 C.ar      1 <0>         0.0003
     37 Cl1        -2.4503   -2.2848   -5.0020 Cl        1 <0>        -0.0609
     38 H1          1.0048    1.8381    0.0023 H         1 <0>         0.0764
     39 H2         -0.5450    1.8219   -0.8730 H         1 <0>         0.0885
     40 H3         -0.5280    1.8123    0.9069 H         1 <0>         0.0871
     41 H4         -0.0192    0.5772   -2.7868 H         1 <0>         0.1471
     42 H5          0.0226    0.5362    2.8077 H         1 <0>         0.1336
     43 H6          0.0654   -4.2022    1.3601 H         1 <0>         0.1564
     44 H7         -0.7809   -4.1546    4.2266 H         1 <0>         0.3955
     45 H8          0.0374    0.8093    4.6093 H         1 <0>         0.3989
     46 H9         -0.8152   -0.0063    7.1753 H         1 <0>         0.0785
     47 H10         0.9645    0.0181    7.1570 H         1 <0>         0.0788
     48 H11         0.9243    2.3774    6.3950 H         1 <0>         0.0958
     49 H12        -0.8554    2.3530    6.4133 H         1 <0>         0.0957
     50 H13        -2.0735    2.3334    8.7660 H         1 <0>         0.1609
     51 H14        -1.2675    2.9055   11.1934 H         1 <0>         0.1363
     52 H15         1.4192    2.9564   11.1625 H         1 <0>         0.1364
     53 H16         2.1906    2.4019    8.7198 H         1 <0>         0.1611
     54 H17         0.0692   -6.0345   -3.1548 H         1 <0>         0.4325
     55 H18         1.9279   -0.1629   -4.8407 H         1 <0>         0.1349
     56 H19         1.8992    0.4316   -7.2268 H         1 <0>         0.1339
     57 H20        -0.0361   -0.1622   -8.6248 H         1 <0>         0.1352
     58 H21        -1.9535   -1.3517   -7.6460 H         1 <0>         0.1374
@<TRIPOS>BOND
     1    1    2 1
     2    1   38 1
     3    1   39 1
     4    1   40 1
     5    2   10 1
     6    2    3 1
     7    3    8 ar
     8    3    4 ar
     9    4    5 ar
    10    4   41 1
    11    5    6 ar
    12    5   31 1
    13    6   29 1
    14    6    7 ar
    15    7    8 ar
    16    7   26 1
    17    8    9 1
    18    9   14 ar
    19    9   10 ar
    20   10   11 ar
    21   11   12 ar
    22   11   42 1
    23   12   13 ar
    24   12   16 1
    25   13   14 ar
    26   13   15 1
    27   14   43 1
    28   15   44 1
    29   16   17 2
    30   16   18 am
    31   18   19 1
    32   18   45 1
    33   19   20 1
    34   19   46 1
    35   19   47 1
    36   20   21 1
    37   20   48 1
    38   20   49 1
    39   21   25 1
    40   21   22 1
    41   22   23 2
    42   22   50 1
    43   23   24 1
    44   23   51 1
    45   24   25 2
    46   24   52 1
    47   25   53 1
    48   26   27 2
    49   26   28 am
    50   28   29 am
    51   28   54 1
    52   29   30 2
    53   31   36 ar
    54   31   32 ar
    55   32   33 ar
    56   32   55 1
    57   33   34 ar
    58   33   56 1
    59   34   35 ar
    60   34   57 1
    61   35   36 ar
    62   35   58 1
    63   36   37 1
@<TRIPOS>MOLECULE
CHEMBL475325
   34    37     0     0     0
SMALL
USER_CHARGES

@<TRIPOS>ATOM
      1 C1         -0.0168    1.3862    0.0097 C.ar      1 <0>        -0.0958
      2 C2          1.1609    2.1025    0.0023 C.ar      1 <0>        -0.1246
      3 C3          2.3825    1.4375   -0.0134 C.ar      1 <0>         0.1380
      4 C4          2.4030    0.0342   -0.0211 C.ar      1 <0>        -0.0940
      5 C5          1.2070   -0.6819   -0.0137 C.ar      1 <0>        -0.0747
      6 C6          0.0021   -0.0041    0.0020 C.ar      1 <0>         0.0793
      7 O1         -1.1671   -0.6986    0.0094 O.3       1 <0>        -0.4931
      8 C7          3.8205   -0.3634   -0.0373 C.ar      1 <0>        -0.0337
      9 C8          4.5699    0.8308   -0.0384 C.ar      1 <0>         0.1712
     10 N1          3.6904    1.8941   -0.0239 N.pl3     1 <0>        -0.4962
     11 C9          4.0840    3.3052   -0.0207 C.3       1 <0>         0.1129
     12 C10         4.2357    3.7891    1.4228 C.3       1 <0>         0.0581
     13 O2          4.6196    5.1656    1.4259 O.3       1 <0>        -0.5686
     14 C11         5.9601    0.7720   -0.0525 C.ar      1 <0>        -0.1214
     15 C12         6.6119   -0.4454   -0.0655 C.ar      1 <0>        -0.0090
     16 C13         5.8862   -1.6303   -0.0646 C.ar      1 <0>        -0.1708
     17 C14         4.4779   -1.5935   -0.0510 C.ar      1 <0>        -0.0822
     18 C15         4.0364   -3.0012   -0.0545 C.2       1 <0>         0.5782
     19 O3          2.8830   -3.3824   -0.0452 O.2       1 <0>        -0.4563
     20 N2          5.1243   -3.7922   -0.0704 N.am      1 <0>        -0.6805
     21 C16         6.2528   -3.0602   -0.0757 C.2       1 <0>         0.5829
     22 O4          7.3844   -3.5020   -0.0893 O.2       1 <0>        -0.4623
     23 H1         -0.9617    1.9091    0.0260 H         1 <0>         0.1403
     24 H2          1.1351    3.1822    0.0083 H         1 <0>         0.1329
     25 H3          1.2216   -1.7618   -0.0199 H         1 <0>         0.1476
     26 H4         -1.5137   -0.8947   -0.8718 H         1 <0>         0.3910
     27 H5          5.0335    3.4188   -0.5437 H         1 <0>         0.1014
     28 H6          3.3191    3.8969   -0.5237 H         1 <0>         0.1018
     29 H7          3.2861    3.6755    1.9458 H         1 <0>         0.0546
     30 H8          5.0006    3.1974    1.9258 H         1 <0>         0.0542
     31 H9          4.7342    5.5399    2.3101 H         1 <0>         0.3910
     32 H10         6.5345    1.6866   -0.0537 H         1 <0>         0.1445
     33 H11         7.6913   -0.4767   -0.0768 H         1 <0>         0.1516
     34 H12         5.0985   -4.7618   -0.0756 H         1 <0>         0.4317
@<TRIPOS>BOND
     1    1    6 ar
     2    1    2 ar
     3    1   23 1
     4    2    3 ar
     5    2   24 1
     6    3   10 1
     7    3    4 ar
     8    4    5 ar
     9    4    8 1
    10    5    6 ar
    11    5   25 1
    12    6    7 1
    13    7   26 1
    14    8   17 ar
    15    8    9 ar
    16    9   10 1
    17    9   14 ar
    18   10   11 1
    19   11   12 1
    20   11   27 1
    21   11   28 1
    22   12   13 1
    23   12   29 1
    24   12   30 1
    25   13   31 1
    26   14   15 ar
    27   14   32 1
    28   15   16 ar
    29   15   33 1
    30   16   21 1
    31   16   17 ar
    32   17   18 1
    33   18   19 2
    34   18   20 am
    35   20   21 am
    36   20   34 1
    37   21   22 2
@<TRIPOS>MOLECULE
CHEMBL475524
   59    64     0     0     0
SMALL
USER_CHARGES

@<TRIPOS>ATOM
      1 C1         -0.0178    1.4608    0.0101 C.3       1 <0>         0.0759
      2 N1          0.0021   -0.0041    0.0020 N.pl3     1 <0>        -0.4997
      3 C2          0.0074   -0.7864   -1.1360 C.ar      1 <0>         0.1800
      4 C3         -0.0040   -0.4611   -2.4860 C.ar      1 <0>        -0.1061
      5 C4          0.0040   -1.4627   -3.4546 C.ar      1 <0>         0.0628
      6 C5          0.0241   -2.8096   -3.0714 C.ar      1 <0>        -0.1525
      7 C6          0.0362   -3.1494   -1.7056 C.ar      1 <0>        -0.0738
      8 C7          0.0277   -2.1405   -0.7412 C.ar      1 <0>        -0.0428
      9 C8          0.0345   -2.1453    0.7309 C.ar      1 <0>        -0.0616
     10 C9          0.0242   -0.8012    1.1349 C.ar      1 <0>         0.1226
     11 C10         0.0328   -0.4970    2.4921 C.ar      1 <0>        -0.0444
     12 C11         0.0556   -1.5089    3.4280 C.ar      1 <0>        -0.4513
     13 C12         0.0703   -2.8408    3.0289 C.ar      1 <0>         0.1367
     14 C13         0.0528   -3.1624    1.6844 C.ar      1 <0>        -0.0899
     15 O1          0.0937   -3.8290    3.9629 O.3       1 <0>        -0.4724
     16 S1          0.0669   -1.1112    5.1445 S.o       1 <0>         1.3412
     17 O2          0.7685   -2.1922    5.7432 O.2       1 <0>        -0.8131
     18 C14        -1.6811   -1.1853    5.6237 C.3       1 <0>        -0.4637
     19 C15        -1.8164   -0.8558    7.1116 C.3       1 <0>        -0.1154
     20 C16        -3.2907   -0.9184    7.5158 C.3       1 <0>         0.1108
     21 N2         -3.4203   -0.6029    8.9405 N.pl3     1 <0>        -0.4508
     22 C17        -3.3711   -1.5051    9.9616 C.2       1 <0>        -0.0174
     23 C18        -3.5284   -0.8371   11.1224 C.2       1 <0>        -0.2010
     24 C19        -3.6803    0.5275   10.8065 C.2       1 <0>        -0.2010
     25 C20        -3.6041    0.6421    9.4650 C.2       1 <0>        -0.0182
     26 C21         0.0554   -4.6240   -1.6557 C.2       1 <0>         0.5781
     27 O3          0.0694   -5.2996   -0.6461 O.2       1 <0>        -0.4554
     28 N3          0.0542   -5.0945   -2.9160 N.am      1 <0>        -0.6801
     29 C22         0.0363   -4.0863   -3.8064 C.2       1 <0>         0.5792
     30 O4          0.0304   -4.2084   -5.0154 O.2       1 <0>        -0.4459
     31 C23        -0.0093   -1.1024   -4.8913 C.ar      1 <0>        -0.0567
     32 C24         1.0740   -0.4278   -5.4542 C.ar      1 <0>        -0.0853
     33 C25         1.0559   -0.0949   -6.7928 C.ar      1 <0>        -0.1155
     34 C26        -0.0339   -0.4286   -7.5777 C.ar      1 <0>        -0.0946
     35 C27        -1.1115   -1.0974   -7.0266 C.ar      1 <0>        -0.1088
     36 C28        -1.1033   -1.4416   -5.6887 C.ar      1 <0>         0.0002
     37 Cl1        -2.4535   -2.2875   -4.9995 Cl        1 <0>        -0.0615
     38 H1          1.0048    1.8381    0.0023 H         1 <0>         0.0772
     39 H2         -0.5450    1.8219   -0.8730 H         1 <0>         0.0874
     40 H3         -0.5280    1.8123    0.9069 H         1 <0>         0.0903
     41 H4         -0.0195    0.5759   -2.7873 H         1 <0>         0.1476
     42 H5          0.0219    0.5341    2.8134 H         1 <0>         0.1462
     43 H6          0.0654   -4.1967    1.3739 H         1 <0>         0.1496
     44 H7         -0.7828   -4.1272    4.2421 H         1 <0>         0.3849
     45 H8         -2.2492   -0.4624    5.0383 H         1 <0>         0.1190
     46 H9         -2.0668   -2.1875    5.4369 H         1 <0>         0.0882
     47 H10        -1.2482   -1.5788    7.6970 H         1 <0>         0.0762
     48 H11        -1.4306    0.1464    7.2984 H         1 <0>         0.0832
     49 H12        -3.8589   -0.1954    6.9305 H         1 <0>         0.0921
     50 H13        -3.6765   -1.9206    7.3290 H         1 <0>         0.0873
     51 H14        -3.2309   -2.5710    9.8585 H         1 <0>         0.1583
     52 H15        -3.5365   -1.2688   12.1123 H         1 <0>         0.1343
     53 H16        -3.8262    1.3341   11.5097 H         1 <0>         0.1347
     54 H17        -3.6782    1.5613    8.9028 H         1 <0>         0.1606
     55 H18         0.0653   -6.0354   -3.1513 H         1 <0>         0.4322
     56 H19         1.9253   -0.1663   -4.8431 H         1 <0>         0.1350
     57 H20         1.8942    0.4278   -7.2293 H         1 <0>         0.1341
     58 H21        -0.0430   -0.1652   -8.6250 H         1 <0>         0.1353
     59 H22        -1.9592   -1.3550   -7.6442 H         1 <0>         0.1373
@<TRIPOS>BOND
     1    1    2 1
     2    1   38 1
     3    1   39 1
     4    1   40 1
     5    2   10 1
     6    2    3 1
     7    3    8 ar
     8    3    4 ar
     9    4    5 ar
    10    4   41 1
    11    5    6 ar
    12    5   31 1
    13    6   29 1
    14    6    7 ar
    15    7    8 ar
    16    7   26 1
    17    8    9 1
    18    9   14 ar
    19    9   10 ar
    20   10   11 ar
    21   11   12 ar
    22   11   42 1
    23   12   13 ar
    24   12   16 1
    25   13   14 ar
    26   13   15 1
    27   14   43 1
    28   15   44 1
    29   16   17 2
    30   16   18 1
    31   18   19 1
    32   18   45 1
    33   18   46 1
    34   19   20 1
    35   19   47 1
    36   19   48 1
    37   20   21 1
    38   20   49 1
    39   20   50 1
    40   21   25 1
    41   21   22 1
    42   22   23 2
    43   22   51 1
    44   23   24 1
    45   23   52 1
    46   24   25 2
    47   24   53 1
    48   25   54 1
    49   26   27 2
    50   26   28 am
    51   28   29 am
    52   28   55 1
    53   29   30 2
    54   31   36 ar
    55   31   32 ar
    56   32   33 ar
    57   32   56 1
    58   33   34 ar
    59   33   57 1
    60   34   35 ar
    61   34   58 1
    62   35   36 ar
    63   35   59 1
    64   36   37 1
@<TRIPOS>MOLECULE
CHEMBL475524
   59    64     0     0     0
SMALL
USER_CHARGES

@<TRIPOS>ATOM
      1 C1         -0.0178    1.4608    0.0101 C.3       1 <0>         0.0760
      2 N1          0.0021   -0.0041    0.0020 N.pl3     1 <0>        -0.4997
      3 C2          0.0074   -0.7864   -1.1360 C.ar      1 <0>         0.1793
      4 C3         -0.0040   -0.4611   -2.4860 C.ar      1 <0>        -0.1062
      5 C4          0.0040   -1.4627   -3.4546 C.ar      1 <0>         0.0634
      6 C5          0.0241   -2.8096   -3.0714 C.ar      1 <0>        -0.1528
      7 C6          0.0362   -3.1494   -1.7056 C.ar      1 <0>        -0.0732
      8 C7          0.0277   -2.1405   -0.7412 C.ar      1 <0>        -0.0424
      9 C8          0.0345   -2.1453    0.7309 C.ar      1 <0>        -0.0608
     10 C9          0.0242   -0.8012    1.1349 C.ar      1 <0>         0.1249
     11 C10         0.0328   -0.4970    2.4921 C.ar      1 <0>        -0.0535
     12 C11         0.0556   -1.5089    3.4280 C.ar      1 <0>        -0.4487
     13 C12         0.0703   -2.8408    3.0289 C.ar      1 <0>         0.1505
     14 C13         0.0528   -3.1624    1.6844 C.ar      1 <0>        -0.0874
     15 O1          0.0937   -3.8290    3.9629 O.3       1 <0>        -0.4839
     16 S1          0.0669   -1.1112    5.1445 S.o       1 <0>         1.3550
     17 O2          0.5115    0.2380    5.1818 O.2       1 <0>        -0.8434
     18 C14        -1.6811   -1.1853    5.6237 C.3       1 <0>        -0.4624
     19 C15        -1.8164   -0.8558    7.1116 C.3       1 <0>        -0.1159
     20 C16        -3.2907   -0.9184    7.5158 C.3       1 <0>         0.1110
     21 N2         -3.4203   -0.6029    8.9405 N.pl3     1 <0>        -0.4509
     22 C17        -3.3711   -1.5051    9.9616 C.2       1 <0>        -0.0172
     23 C18        -3.5284   -0.8371   11.1224 C.2       1 <0>        -0.2011
     24 C19        -3.6803    0.5275   10.8065 C.2       1 <0>        -0.2007
     25 C20        -3.6041    0.6421    9.4650 C.2       1 <0>        -0.0185
     26 C21         0.0554   -4.6240   -1.6557 C.2       1 <0>         0.5799
     27 O3          0.0694   -5.2996   -0.6461 O.2       1 <0>        -0.4552
     28 N3          0.0542   -5.0945   -2.9160 N.am      1 <0>        -0.6797
     29 C22         0.0363   -4.0863   -3.8064 C.2       1 <0>         0.5794
     30 O4          0.0304   -4.2084   -5.0154 O.2       1 <0>        -0.4455
     31 C23        -0.0093   -1.1024   -4.8913 C.ar      1 <0>        -0.0570
     32 C24         1.0740   -0.4278   -5.4542 C.ar      1 <0>        -0.0853
     33 C25         1.0559   -0.0949   -6.7928 C.ar      1 <0>        -0.1154
     34 C26        -0.0339   -0.4286   -7.5777 C.ar      1 <0>        -0.0945
     35 C27        -1.1115   -1.0974   -7.0266 C.ar      1 <0>        -0.1087
     36 C28        -1.1033   -1.4416   -5.6887 C.ar      1 <0>         0.0003
     37 Cl1        -2.4535   -2.2875   -4.9995 Cl        1 <0>        -0.0614
     38 H1          1.0048    1.8381    0.0023 H         1 <0>         0.0775
     39 H2         -0.5450    1.8219   -0.8730 H         1 <0>         0.0889
     40 H3         -0.5280    1.8123    0.9069 H         1 <0>         0.0869
     41 H4         -0.0195    0.5759   -2.7873 H         1 <0>         0.1469
     42 H5          0.0219    0.5341    2.8134 H         1 <0>         0.1379
     43 H6          0.0654   -4.1967    1.3739 H         1 <0>         0.1551
     44 H7         -0.7828   -4.1272    4.2421 H         1 <0>         0.3948
     45 H8         -2.2492   -0.4624    5.0383 H         1 <0>         0.0907
     46 H9         -2.0668   -2.1875    5.4369 H         1 <0>         0.1191
     47 H10        -1.2482   -1.5788    7.6970 H         1 <0>         0.0854
     48 H11        -1.4306    0.1464    7.2984 H         1 <0>         0.0753
     49 H12        -3.8589   -0.1954    6.9305 H         1 <0>         0.0869
     50 H13        -3.6765   -1.9206    7.3290 H         1 <0>         0.0932
     51 H14        -3.2309   -2.5710    9.8585 H         1 <0>         0.1614
     52 H15        -3.5365   -1.2688   12.1123 H         1 <0>         0.1349
     53 H16        -3.8262    1.3341   11.5097 H         1 <0>         0.1342
     54 H17        -3.6782    1.5613    8.9028 H         1 <0>         0.1577
     55 H18         0.0653   -6.0354   -3.1513 H         1 <0>         0.4325
     56 H19         1.9253   -0.1663   -4.8431 H         1 <0>         0.1349
     57 H20         1.8942    0.4278   -7.2293 H         1 <0>         0.1342
     58 H21        -0.0430   -0.1652   -8.6250 H         1 <0>         0.1355
     59 H22        -1.9592   -1.3550   -7.6442 H         1 <0>         0.1375
@<TRIPOS>BOND
     1    1    2 1
     2    1   38 1
     3    1   39 1
     4    1   40 1
     5    2   10 1
     6    2    3 1
     7    3    8 ar
     8    3    4 ar
     9    4    5 ar
    10    4   41 1
    11    5    6 ar
    12    5   31 1
    13    6   29 1
    14    6    7 ar
    15    7    8 ar
    16    7   26 1
    17    8    9 1
    18    9   14 ar
    19    9   10 ar
    20   10   11 ar
    21   11   12 ar
    22   11   42 1
    23   12   13 ar
    24   12   16 1
    25   13   14 ar
    26   13   15 1
    27   14   43 1
    28   15   44 1
    29   16   17 2
    30   16   18 1
    31   18   19 1
    32   18   45 1
    33   18   46 1
    34   19   20 1
    35   19   47 1
    36   19   48 1
    37   20   21 1
    38   20   49 1
    39   20   50 1
    40   21   25 1
    41   21   22 1
    42   22   23 2
    43   22   51 1
    44   23   24 1
    45   23   52 1
    46   24   25 2
    47   24   53 1
    48   25   54 1
    49   26   27 2
    50   26   28 am
    51   28   29 am
    52   28   55 1
    53   29   30 2
    54   31   36 ar
    55   31   32 ar
    56   32   33 ar
    57   32   56 1
    58   33   34 ar
    59   33   57 1
    60   34   35 ar
    61   34   58 1
    62   35   36 ar
    63   35   59 1
    64   36   37 1
@<TRIPOS>MOLECULE
CHEMBL507613
   30    33     0     0     0
SMALL
USER_CHARGES

@<TRIPOS>ATOM
      1 C1         -0.0178    1.4608    0.0101 C.3       1 <0>         0.0785
      2 N1          0.0021   -0.0041    0.0020 N.pl3     1 <0>        -0.5023
      3 C2          0.0080   -0.7888   -1.1398 C.ar      1 <0>         0.1376
      4 C3         -0.0020   -0.4699   -2.4940 C.ar      1 <0>        -0.1247
      5 C4          0.0077   -1.4714   -3.4406 C.ar      1 <0>        -0.0965
      6 C5          0.0280   -2.8078   -3.0560 C.ar      1 <0>         0.0775
      7 C6          0.0386   -3.1434   -1.7152 C.ar      1 <0>        -0.0747
      8 C7          0.0284   -2.1367   -0.7506 C.ar      1 <0>        -0.0963
      9 C8          0.0350   -2.1470    0.7215 C.ar      1 <0>        -0.0364
     10 C9          0.0236   -0.7979    1.1305 C.ar      1 <0>         0.1710
     11 C10         0.0314   -0.4902    2.4876 C.ar      1 <0>        -0.1217
     12 C11         0.0537   -1.4940    3.4359 C.ar      1 <0>        -0.0096
     13 C12         0.0687   -2.8278    3.0470 C.ar      1 <0>        -0.1727
     14 C13         0.0534   -3.1617    1.6784 C.ar      1 <0>        -0.0821
     15 C14         0.0741   -4.6357    1.6208 C.2       1 <0>         0.5781
     16 O1          0.0797   -5.3057    0.6074 O.2       1 <0>        -0.4568
     17 N2          0.0866   -5.1138    2.8780 N.am      1 <0>        -0.6806
     18 C15         0.0924   -4.1116    3.7753 C.2       1 <0>         0.5832
     19 O2          0.1054   -4.2413    4.9831 O.2       1 <0>        -0.4631
     20 O3          0.0369   -3.7860   -4.0006 O.3       1 <0>        -0.4930
     21 H1          1.0048    1.8381    0.0023 H         1 <0>         0.0742
     22 H2         -0.5450    1.8219   -0.8730 H         1 <0>         0.0870
     23 H3         -0.5280    1.8123    0.9069 H         1 <0>         0.0868
     24 H4         -0.0178    0.5645   -2.8040 H         1 <0>         0.1327
     25 H5         -0.0009   -1.2163   -4.4900 H         1 <0>         0.1397
     26 H6          0.0540   -4.1811   -1.4160 H         1 <0>         0.1472
     27 H7          0.0203    0.5429    2.8021 H         1 <0>         0.1441
     28 H8          0.0599   -1.2407    4.4858 H         1 <0>         0.1509
     29 H9          0.1010   -6.0563    3.1072 H         1 <0>         0.4315
     30 H10         0.9228   -4.0567   -4.2781 H         1 <0>         0.3904
@<TRIPOS>BOND
     1    1    2 1
     2    1   21 1
     3    1   22 1
     4    1   23 1
     5    2   10 1
     6    2    3 1
     7    3    8 ar
     8    3    4 ar
     9    4    5 ar
    10    4   24 1
    11    5    6 ar
    12    5   25 1
    13    6    7 ar
    14    6   20 1
    15    7    8 ar
    16    7   26 1
    17    8    9 1
    18    9   14 ar
    19    9   10 ar
    20   10   11 ar
    21   11   12 ar
    22   11   27 1
    23   12   13 ar
    24   12   28 1
    25   13   18 1
    26   13   14 ar
    27   14   15 1
    28   15   16 2
    29   15   17 am
    30   17   18 am
    31   17   29 1
    32   18   19 2
    33   20   30 1
@<TRIPOS>MOLECULE
CHEMBL452829
   54    59     0     0     0
SMALL
USER_CHARGES

@<TRIPOS>ATOM
      1 C1         -0.0167    1.3790    0.0096 C.ar      1 <0>        -0.0802
      2 C2          1.1680    2.0931    0.0021 C.ar      1 <0>        -0.1016
      3 C3          2.3785    1.4284   -0.0135 C.ar      1 <0>        -0.0039
      4 C4          2.4047    0.0329   -0.0212 C.ar      1 <0>        -0.0467
      5 C5          1.2056   -0.6814   -0.0131 C.ar      1 <0>        -0.0044
      6 C6          0.0021   -0.0041    0.0020 C.ar      1 <0>        -0.1036
      7 Cl1         1.2269   -2.4173   -0.0233 Cl        1 <0>        -0.0525
      8 C7          3.6990   -0.6866   -0.0385 C.ar      1 <0>         0.0594
      9 C8          4.3172   -1.0365    1.1608 C.ar      1 <0>        -0.1012
     10 C9          5.5303   -1.7113    1.1570 C.ar      1 <0>         0.1711
     11 C10         6.1436   -2.0466   -0.0687 C.ar      1 <0>        -0.0246
     12 C11         7.3954   -2.7439    0.2692 C.ar      1 <0>        -0.0914
     13 C12         8.4152   -3.3067   -0.4977 C.ar      1 <0>        -0.0724
     14 C13         9.4915   -3.9072    0.1280 C.ar      1 <0>         0.0856
     15 C14         9.5569   -3.9500    1.5167 C.ar      1 <0>        -0.0944
     16 C15         8.5535   -3.3970    2.2825 C.ar      1 <0>        -0.1287
     17 C16         7.4627   -2.7879    1.6702 C.ar      1 <0>         0.1362
     18 N1          6.3366   -2.1645    2.1825 N.pl3     1 <0>        -0.5019
     19 C17         6.0430   -2.0082    3.6092 C.3       1 <0>         0.1184
     20 C18         5.2400   -3.2147    4.0998 C.3       1 <0>        -0.1673
     21 C19         4.9333   -3.0514    5.5898 C.3       1 <0>         0.0954
     22 N2          4.1644   -4.2066    6.0595 N.pl3     1 <0>        -0.4089
     23 C20         2.8009   -4.3272    6.0643 C.2       1 <0>         0.0259
     24 C21         2.5189   -5.5410    6.5750 C.2       1 <0>         0.0056
     25 N3          3.6786   -6.1450    6.8740 N.pl3     1 <0>        -0.4752
     26 C22         4.6686   -5.3537    6.5632 C.cat     1 <0>         0.2893
     27 O1         10.4881   -4.4577   -0.6157 O.3       1 <0>        -0.4924
     28 C23         5.5309   -1.6996   -1.2735 C.ar      1 <0>        -0.0759
     29 C24         4.2979   -1.0200   -1.2595 C.ar      1 <0>        -0.1424
     30 C25         3.9316   -0.8164   -2.6717 C.2       1 <0>         0.5773
     31 O2          2.9288   -0.2579   -3.0706 O.2       1 <0>        -0.4454
     32 N4          4.8926   -1.3513   -3.4461 N.am      1 <0>        -0.6784
     33 C26         5.8745   -1.8840   -2.6965 C.2       1 <0>         0.5776
     34 O3          6.8706   -2.4357   -3.1201 O.2       1 <0>        -0.4507
     35 Cl2         3.8641    2.3266   -0.0240 Cl        1 <0>        -0.0451
     36 H1         -0.9605    1.9037    0.0260 H         1 <0>         0.1484
     37 H2          1.1462    3.1729    0.0082 H         1 <0>         0.1470
     38 H3         -0.9265   -0.5555    0.0083 H         1 <0>         0.1456
     39 H4          3.8492   -0.7804    2.0998 H         1 <0>         0.1415
     40 H5          8.3641   -3.2737   -1.5760 H         1 <0>         0.1502
     41 H6         10.4009   -4.4209    1.9987 H         1 <0>         0.1413
     42 H7          8.6140   -3.4364    3.3601 H         1 <0>         0.1293
     43 H8          6.9769   -1.9421    4.1673 H         1 <0>         0.1031
     44 H9          5.4626   -1.0985    3.7632 H         1 <0>         0.1012
     45 H10         4.3060   -3.2807    3.5417 H         1 <0>         0.0907
     46 H11         5.8204   -4.1243    3.9458 H         1 <0>         0.0895
     47 H12         5.8672   -2.9854    6.1479 H         1 <0>         0.1265
     48 H13         4.3529   -2.1418    5.7438 H         1 <0>         0.1291
     49 H14         2.0883   -3.5905    5.7241 H         1 <0>         0.2233
     50 H15         1.5320   -5.9554    6.7187 H         1 <0>         0.2245
     51 H16         5.7174   -5.5779    6.6903 H         1 <0>         0.2600
     52 H17        11.2054   -3.8447   -0.8274 H         1 <0>         0.3952
     53 H18         4.8830   -1.3462   -4.4161 H         1 <0>         0.4351
     54 H19         3.7674   -7.0316    7.2573 H         1 <0>         0.4662
@<TRIPOS>BOND
     1    1    6 ar
     2    1    2 ar
     3    1   36 1
     4    2    3 ar
     5    2   37 1
     6    3    4 ar
     7    3   35 1
     8    4    5 ar
     9    4    8 1
    10    5    6 ar
    11    5    7 1
    12    6   38 1
    13    8   29 ar
    14    8    9 ar
    15    9   10 ar
    16    9   39 1
    17   10   18 1
    18   10   11 ar
    19   11   12 1
    20   11   28 ar
    21   12   17 ar
    22   12   13 ar
    23   13   14 ar
    24   13   40 1
    25   14   15 ar
    26   14   27 1
    27   15   16 ar
    28   15   41 1
    29   16   17 ar
    30   16   42 1
    31   17   18 1
    32   18   19 1
    33   19   20 1
    34   19   43 1
    35   19   44 1
    36   20   21 1
    37   20   45 1
    38   20   46 1
    39   21   22 1
    40   21   47 1
    41   21   48 1
    42   22   26 1
    43   22   23 1
    44   23   24 2
    45   23   49 1
    46   24   25 1
    47   24   50 1
    48   25   26 2
    49   25   54 1
    50   26   51 1
    51   27   52 1
    52   28   33 1
    53   28   29 ar
    54   29   30 1
    55   30   31 2
    56   30   32 am
    57   32   33 am
    58   32   53 1
    59   33   34 2
@<TRIPOS>MOLECULE
CHEMBL452829
   53    58     0     0     0
SMALL
USER_CHARGES

@<TRIPOS>ATOM
      1 C1         -0.0167    1.3790    0.0096 C.ar      1 <0>        -0.0830
      2 C2          1.1680    2.0931    0.0021 C.ar      1 <0>        -0.1040
      3 C3          2.3785    1.4284   -0.0135 C.ar      1 <0>        -0.0036
      4 C4          2.4047    0.0329   -0.0212 C.ar      1 <0>        -0.0424
      5 C5          1.2056   -0.6814   -0.0131 C.ar      1 <0>        -0.0039
      6 C6          0.0021   -0.0041    0.0020 C.ar      1 <0>        -0.1038
      7 Cl1         1.2269   -2.4173   -0.0233 Cl        1 <0>        -0.0469
      8 C7          3.6990   -0.6866   -0.0385 C.ar      1 <0>         0.0563
      9 C8          4.3172   -1.0365    1.1608 C.ar      1 <0>        -0.0982
     10 C9          5.5303   -1.7113    1.1570 C.ar      1 <0>         0.1761
     11 C10         6.1436   -2.0466   -0.0687 C.ar      1 <0>        -0.0255
     12 C11         7.3954   -2.7439    0.2692 C.ar      1 <0>        -0.0954
     13 C12         8.4152   -3.3067   -0.4977 C.ar      1 <0>        -0.0731
     14 C13         9.4915   -3.9072    0.1280 C.ar      1 <0>         0.0791
     15 C14         9.5569   -3.9500    1.5167 C.ar      1 <0>        -0.0942
     16 C15         8.5535   -3.3970    2.2825 C.ar      1 <0>        -0.1253
     17 C16         7.4627   -2.7879    1.6702 C.ar      1 <0>         0.1422
     18 N1          6.3366   -2.1645    2.1825 N.pl3     1 <0>        -0.4969
     19 C17         6.0430   -2.0082    3.6092 C.3       1 <0>         0.1157
     20 C18         5.2400   -3.2147    4.0998 C.3       1 <0>        -0.1591
     21 C19         4.9333   -3.0514    5.5898 C.3       1 <0>         0.1093
     22 N2          4.1644   -4.2066    6.0595 N.pl3     1 <0>        -0.4612
     23 C20         2.8009   -4.3271    6.0647 C.2       1 <0>        -0.0564
     24 C21         2.5189   -5.5409    6.5753 C.2       1 <0>        -0.0269
     25 N3          3.6786   -6.1451    6.8737 N.2       1 <0>        -0.4931
     26 C22         4.6687   -5.3538    6.5628 C.2       1 <0>         0.1824
     27 O1         10.4881   -4.4577   -0.6157 O.3       1 <0>        -0.4926
     28 C23         5.5309   -1.6996   -1.2735 C.ar      1 <0>        -0.0791
     29 C24         4.2979   -1.0200   -1.2595 C.ar      1 <0>        -0.1484
     30 C25         3.9316   -0.8164   -2.6717 C.2       1 <0>         0.5800
     31 O2          2.9288   -0.2579   -3.0706 O.2       1 <0>        -0.4509
     32 N4          4.8926   -1.3513   -3.4461 N.am      1 <0>        -0.6797
     33 C26         5.8745   -1.8840   -2.6965 C.2       1 <0>         0.5796
     34 O3          6.8706   -2.4357   -3.1201 O.2       1 <0>        -0.4541
     35 Cl2         3.8641    2.3266   -0.0240 Cl        1 <0>        -0.0479
     36 H1         -0.9605    1.9037    0.0260 H         1 <0>         0.1464
     37 H2          1.1462    3.1729    0.0082 H         1 <0>         0.1449
     38 H3         -0.9265   -0.5555    0.0083 H         1 <0>         0.1450
     39 H4          3.8492   -0.7804    2.0998 H         1 <0>         0.1430
     40 H5          8.3641   -3.2737   -1.5760 H         1 <0>         0.1480
     41 H6         10.4009   -4.4209    1.9987 H         1 <0>         0.1402
     42 H7          8.6140   -3.4364    3.3601 H         1 <0>         0.1320
     43 H8          6.9769   -1.9421    4.1673 H         1 <0>         0.0994
     44 H9          5.4626   -1.0985    3.7632 H         1 <0>         0.0967
     45 H10         4.3060   -3.2807    3.5417 H         1 <0>         0.0811
     46 H11         5.8204   -4.1243    3.9458 H         1 <0>         0.0825
     47 H12         5.8672   -2.9854    6.1479 H         1 <0>         0.0990
     48 H13         4.3529   -2.1418    5.7438 H         1 <0>         0.0965
     49 H14         2.0882   -3.5901    5.7250 H         1 <0>         0.1735
     50 H15         1.5320   -5.9552    6.7192 H         1 <0>         0.1698
     51 H16         5.7175   -5.5782    6.6894 H         1 <0>         0.2034
     52 H17        11.2054   -3.8447   -0.8274 H         1 <0>         0.3909
     53 H18         4.8830   -1.3462   -4.4161 H         1 <0>         0.4324
@<TRIPOS>BOND
     1    1    6 ar
     2    1    2 ar
     3    1   36 1
     4    2    3 ar
     5    2   37 1
     6    3    4 ar
     7    3   35 1
     8    4    5 ar
     9    4    8 1
    10    5    6 ar
    11    5    7 1
    12    6   38 1
    13    8   29 ar
    14    8    9 ar
    15    9   10 ar
    16    9   39 1
    17   10   18 1
    18   10   11 ar
    19   11   12 1
    20   11   28 ar
    21   12   17 ar
    22   12   13 ar
    23   13   14 ar
    24   13   40 1
    25   14   15 ar
    26   14   27 1
    27   15   16 ar
    28   15   41 1
    29   16   17 ar
    30   16   42 1
    31   17   18 1
    32   18   19 1
    33   19   20 1
    34   19   43 1
    35   19   44 1
    36   20   21 1
    37   20   45 1
    38   20   46 1
    39   21   22 1
    40   21   47 1
    41   21   48 1
    42   22   26 1
    43   22   23 1
    44   23   24 2
    45   23   49 1
    46   24   25 1
    47   24   50 1
    48   25   26 2
    49   26   51 1
    50   27   52 1
    51   28   33 1
    52   28   29 ar
    53   29   30 1
    54   30   31 2
    55   30   32 am
    56   32   33 am
    57   32   53 1
    58   33   34 2
@<TRIPOS>MOLECULE
CHEMBL213422
   35    39     0     0     0
SMALL
USER_CHARGES

@<TRIPOS>ATOM
      1 C1         -0.0168    1.3862    0.0097 C.ar      1 <0>        -0.0980
      2 C2          1.1610    2.1027    0.0023 C.ar      1 <0>        -0.1263
      3 C3          2.3825    1.4379   -0.0129 C.ar      1 <0>         0.1379
      4 C4          2.4031    0.0345   -0.0206 C.ar      1 <0>        -0.0942
      5 C5          1.2071   -0.6818   -0.0130 C.ar      1 <0>        -0.0760
      6 C6          0.0021   -0.0041    0.0020 C.ar      1 <0>         0.0769
      7 O1         -1.1671   -0.6986    0.0099 O.3       1 <0>        -0.4935
      8 C7          3.8204   -0.3641   -0.0367 C.ar      1 <0>        -0.0411
      9 C8          4.5711    0.8313   -0.0378 C.ar      1 <0>         0.1764
     10 N1          3.6905    1.8953   -0.0234 N.pl3     1 <0>        -0.6102
     11 H1          3.9506    2.8298   -0.0215 H         1 <0>         0.4246
     12 C9          5.9574    0.7768   -0.0522 C.ar      1 <0>        -0.1218
     13 C10         6.6172   -0.4517   -0.0657 C.ar      1 <0>         0.1116
     14 C11         5.8805   -1.6431   -0.0647 C.ar      1 <0>        -0.1647
     15 C12         4.4723   -1.5972   -0.0497 C.ar      1 <0>        -0.0803
     16 C13         4.0229   -3.0022   -0.0525 C.2       1 <0>         0.5786
     17 O2          2.8674   -3.3777   -0.0430 O.2       1 <0>        -0.4600
     18 N2          5.1075   -3.7980   -0.0673 N.am      1 <0>        -0.6824
     19 C14         6.2388   -3.0705   -0.0770 C.2       1 <0>         0.5799
     20 O3          7.3689   -3.5175   -0.0916 O.2       1 <0>        -0.4505
     21 C15         8.0965   -0.4968   -0.0815 C.2       1 <0>        -0.1561
     22 C16         8.9270   -1.2651    0.7761 C.2       1 <0>        -0.1492
     23 C17        10.2022   -1.0160    0.4267 C.2       1 <0>        -0.0181
     24 N3         10.2034   -0.1275   -0.6094 N.pl3     1 <0>        -0.5541
     25 H2         10.9935    0.2204   -1.0515 H         1 <0>         0.4180
     26 C18         8.9194    0.1870   -0.9259 C.2       1 <0>         0.0183
     27 H3         -0.9617    1.9090    0.0260 H         1 <0>         0.1391
     28 H4          1.1351    3.1824    0.0079 H         1 <0>         0.1334
     29 H5          1.2218   -1.7617   -0.0193 H         1 <0>         0.1472
     30 H6         -1.5140   -0.8948   -0.8712 H         1 <0>         0.3900
     31 H7          6.5298    1.6926   -0.0533 H         1 <0>         0.1439
     32 H8          5.0776   -4.7675   -0.0720 H         1 <0>         0.4299
     33 H9          8.5965   -1.9266    1.5632 H         1 <0>         0.1368
     34 H10        11.0781   -1.4467    0.8889 H         1 <0>         0.1661
     35 H11         8.6060    0.8625   -1.7082 H         1 <0>         0.1680
@<TRIPOS>BOND
     1    1    6 ar
     2    1    2 ar
     3    1   27 1
     4    2    3 ar
     5    2   28 1
     6    3   10 1
     7    3    4 ar
     8    4    5 ar
     9    4    8 1
    10    5    6 ar
    11    5   29 1
    12    6    7 1
    13    7   30 1
    14    8   15 ar
    15    8    9 ar
    16    9   10 1
    17    9   12 ar
    18   10   11 1
    19   12   13 ar
    20   12   31 1
    21   13   14 ar
    22   13   21 1
    23   14   19 1
    24   14   15 ar
    25   15   16 1
    26   16   17 2
    27   16   18 am
    28   18   19 am
    29   18   32 1
    30   19   20 2
    31   21   26 2
    32   21   22 1
    33   22   23 2
    34   22   33 1
    35   23   24 1
    36   23   34 1
    37   24   25 1
    38   24   26 1
    39   26   35 1
@<TRIPOS>MOLECULE
CHEMBL379149
   35    39     0     0     0
SMALL
USER_CHARGES

@<TRIPOS>ATOM
      1 C1         -0.0163    1.3479    0.0095 C.2       1 <0>        -0.2069
      2 C2          1.3134    1.7932   -0.0009 C.2       1 <0>        -0.1560
      3 C3          2.1124    0.6862   -0.0144 C.2       1 <0>         0.0210
      4 N1          1.2984   -0.4194   -0.0126 N.pl3     1 <0>        -0.5305
      5 H1          1.5971   -1.3423   -0.0207 H         1 <0>         0.4177
      6 C4          0.0021   -0.0041    0.0020 C.2       1 <0>         0.0146
      7 C5          3.5864    0.6793   -0.0293 C.ar      1 <0>         0.0993
      8 C6          4.2818    1.6102   -0.8048 C.ar      1 <0>        -0.1087
      9 C7          5.6683    1.6123   -0.8260 C.ar      1 <0>         0.1806
     10 C8          6.3854    0.6681   -0.0593 C.ar      1 <0>        -0.0360
     11 C9          7.8131    0.9355   -0.2996 C.ar      1 <0>        -0.0963
     12 C10         8.9889    0.3479    0.1667 C.ar      1 <0>        -0.0757
     13 C11        10.2121    0.8360   -0.2529 C.ar      1 <0>         0.0789
     14 C12        10.2700    1.9087   -1.1363 C.ar      1 <0>        -0.0959
     15 C13         9.1133    2.4959   -1.6018 C.ar      1 <0>        -0.1246
     16 C14         7.8731    2.0178   -1.1908 C.ar      1 <0>         0.1393
     17 N2          6.5787    2.4084   -1.4937 N.pl3     1 <0>        -0.6072
     18 H2          6.3451    3.1374   -2.0895 H         1 <0>         0.4267
     19 O1         11.3612    0.2665    0.1993 O.3       1 <0>        -0.4930
     20 C15         5.7002   -0.2658    0.7182 C.ar      1 <0>        -0.0752
     21 C16         4.2916   -0.2586    0.7399 C.ar      1 <0>        -0.1807
     22 C17         3.8949   -1.3455    1.6484 C.2       1 <0>         0.5838
     23 O2          2.7531   -1.6579    1.9238 O.2       1 <0>        -0.4663
     24 N3          5.0061   -1.9360    2.1236 N.am      1 <0>        -0.6790
     25 C18         6.1118   -1.3625    1.6148 C.2       1 <0>         0.5785
     26 O3          7.2567   -1.6843    1.8634 O.2       1 <0>        -0.4528
     27 H3         -0.8970    1.9728    0.0252 H         1 <0>         0.1400
     28 H4          1.6442    2.8213    0.0010 H         1 <0>         0.1397
     29 H5         -0.8660   -0.6466    0.0072 H         1 <0>         0.1680
     30 H6          3.7356    2.3333   -1.3924 H         1 <0>         0.1508
     31 H7          8.9438   -0.4849    0.8529 H         1 <0>         0.1473
     32 H8         11.2293    2.2848   -1.4599 H         1 <0>         0.1405
     33 H9          9.1697    3.3286   -2.2872 H         1 <0>         0.1352
     34 H10        11.6837   -0.4597   -0.3519 H         1 <0>         0.3907
     35 H11         5.0097   -2.6821    2.7434 H         1 <0>         0.4322
@<TRIPOS>BOND
     1    1    6 2
     2    1    2 1
     3    1   27 1
     4    2    3 2
     5    2   28 1
     6    3    4 1
     7    3    7 1
     8    4    5 1
     9    4    6 1
    10    6   29 1
    11    7   21 ar
    12    7    8 ar
    13    8    9 ar
    14    8   30 1
    15    9   17 1
    16    9   10 ar
    17   10   11 1
    18   10   20 ar
    19   11   16 ar
    20   11   12 ar
    21   12   13 ar
    22   12   31 1
    23   13   14 ar
    24   13   19 1
    25   14   15 ar
    26   14   32 1
    27   15   16 ar
    28   15   33 1
    29   16   17 1
    30   17   18 1
    31   19   34 1
    32   20   25 1
    33   20   21 ar
    34   21   22 1
    35   22   23 2
    36   22   24 am
    37   24   25 am
    38   24   35 1
    39   25   26 2
@<TRIPOS>MOLECULE
CHEMBL521065
   45    49     0     0     0
SMALL
USER_CHARGES

@<TRIPOS>ATOM
      1 C1         -0.0168    1.3862    0.0097 C.ar      1 <0>        -0.0962
      2 C2          1.1609    2.1025    0.0023 C.ar      1 <0>        -0.1251
      3 C3          2.3825    1.4375   -0.0134 C.ar      1 <0>         0.1397
      4 C4          2.4030    0.0342   -0.0211 C.ar      1 <0>        -0.0946
      5 C5          1.2070   -0.6819   -0.0137 C.ar      1 <0>        -0.0744
      6 C6          0.0021   -0.0041    0.0020 C.ar      1 <0>         0.0788
      7 O1         -1.1671   -0.6986    0.0094 O.3       1 <0>        -0.4930
      8 C7          3.8205   -0.3634   -0.0373 C.ar      1 <0>        -0.0344
      9 C8          4.5699    0.8308   -0.0384 C.ar      1 <0>         0.1728
     10 N1          3.6904    1.8941   -0.0239 N.pl3     1 <0>        -0.4980
     11 C9          4.0840    3.3052   -0.0207 C.3       1 <0>         0.1135
     12 C10         4.2357    3.7891    1.4228 C.3       1 <0>        -0.1317
     13 C11         4.6467    5.2628    1.4262 C.3       1 <0>        -0.1409
     14 C12         4.7962    5.7394    2.8480 C.2       1 <0>         0.5313
     15 O2          4.5946    4.9784    3.7645 O.2       1 <0>        -0.4612
     16 N2          5.1546    7.0145    3.0972 N.am      1 <0>        -0.4722
     17 C13         5.3347    7.5882    4.3346 C.2       1 <0>        -0.0301
     18 C14         5.6868    8.8681    4.1220 C.2       1 <0>        -0.0144
     19 N3          5.7239    9.0815    2.7967 N.2       1 <0>        -0.4680
     20 C15         5.4139    7.9815    2.1704 C.2       1 <0>         0.2059
     21 C16         5.9601    0.7720   -0.0525 C.ar      1 <0>        -0.1223
     22 C17         6.6119   -0.4454   -0.0655 C.ar      1 <0>        -0.0094
     23 C18         5.8862   -1.6303   -0.0646 C.ar      1 <0>        -0.1714
     24 C19         4.4779   -1.5935   -0.0510 C.ar      1 <0>        -0.0817
     25 C20         4.0364   -3.0012   -0.0545 C.2       1 <0>         0.5778
     26 O3          2.8830   -3.3824   -0.0452 O.2       1 <0>        -0.4563
     27 N4          5.1243   -3.7922   -0.0704 N.am      1 <0>        -0.6806
     28 C21         6.2528   -3.0602   -0.0757 C.2       1 <0>         0.5827
     29 O4          7.3844   -3.5020   -0.0893 O.2       1 <0>        -0.4625
     30 H1         -0.9617    1.9091    0.0260 H         1 <0>         0.1396
     31 H2          1.1351    3.1822    0.0083 H         1 <0>         0.1316
     32 H3          1.2216   -1.7618   -0.0199 H         1 <0>         0.1471
     33 H4         -1.5137   -0.8947   -0.8718 H         1 <0>         0.3906
     34 H5          5.0335    3.4188   -0.5437 H         1 <0>         0.0973
     35 H6          3.3191    3.8969   -0.5237 H         1 <0>         0.0977
     36 H7          3.2861    3.6755    1.9458 H         1 <0>         0.0842
     37 H8          5.0006    3.1974    1.9258 H         1 <0>         0.0839
     38 H9          5.5963    5.3764    0.9032 H         1 <0>         0.1150
     39 H10         3.8818    5.8545    0.9232 H         1 <0>         0.1147
     40 H11         5.2158    7.1036    5.2925 H         1 <0>         0.1857
     41 H12         5.9029    9.5997    4.8864 H         1 <0>         0.1822
     42 H13         5.3678    7.8570    1.0986 H         1 <0>         0.2206
     43 H14         6.5345    1.6866   -0.0537 H         1 <0>         0.1432
     44 H15         7.6913   -0.4767   -0.0768 H         1 <0>         0.1508
     45 H16         5.0985   -4.7618   -0.0756 H         1 <0>         0.4316
@<TRIPOS>BOND
     1    1    6 ar
     2    1    2 ar
     3    1   30 1
     4    2    3 ar
     5    2   31 1
     6    3   10 1
     7    3    4 ar
     8    4    5 ar
     9    4    8 1
    10    5    6 ar
    11    5   32 1
    12    6    7 1
    13    7   33 1
    14    8   24 ar
    15    8    9 ar
    16    9   10 1
    17    9   21 ar
    18   10   11 1
    19   11   12 1
    20   11   34 1
    21   11   35 1
    22   12   13 1
    23   12   36 1
    24   12   37 1
    25   13   14 1
    26   13   38 1
    27   13   39 1
    28   14   15 2
    29   14   16 am
    30   16   20 1
    31   16   17 1
    32   17   18 2
    33   17   40 1
    34   18   19 1
    35   18   41 1
    36   19   20 2
    37   20   42 1
    38   21   22 ar
    39   21   43 1
    40   22   23 ar
    41   22   44 1
    42   23   28 1
    43   23   24 ar
    44   24   25 1
    45   25   26 2
    46   25   27 am
    47   27   28 am
    48   27   45 1
    49   28   29 2
@<TRIPOS>MOLECULE
CHEMBL483800
   48    52     0     0     0
SMALL
USER_CHARGES

@<TRIPOS>ATOM
      1 C1         -0.0167    1.3786    0.0096 C.ar      1 <0>        -0.1776
      2 C2          1.1695    2.0894    0.0021 C.ar      1 <0>        -0.0725
      3 C3          2.3774    1.4200   -0.0130 C.ar      1 <0>        -0.1950
      4 C4          2.3998    0.0311   -0.0206 C.ar      1 <0>         0.2124
      5 C5          1.2064   -0.6798   -0.0130 C.ar      1 <0>        -0.1980
      6 C6          0.0021   -0.0041    0.0020 C.ar      1 <0>        -0.0731
      7 N1          3.6196   -0.6492   -0.0363 N.pl3     1 <0>        -0.7505
      8 C7          3.6414   -2.1140   -0.0443 C.3       1 <0>         0.1299
      9 C8          5.0913   -2.6024   -0.0613 C.3       1 <0>        -0.1523
     10 C9          5.1140   -4.1322   -0.0697 C.3       1 <0>         0.1163
     11 N2          6.5023   -4.5998   -0.0859 N.pl3     1 <0>        -0.4975
     12 C10         7.2425   -4.8406   -1.2321 C.ar      1 <0>         0.1395
     13 C11         6.9361   -4.7271   -2.5845 C.ar      1 <0>        -0.1247
     14 C12         7.8824   -5.0386   -3.5367 C.ar      1 <0>        -0.0963
     15 C13         9.1503   -5.4682   -3.1595 C.ar      1 <0>         0.0785
     16 C14         9.4727   -5.5865   -1.8206 C.ar      1 <0>        -0.0748
     17 C15         8.5213   -5.2738   -0.8504 C.ar      1 <0>        -0.0953
     18 C16         8.5357   -5.2895    0.6216 C.ar      1 <0>        -0.0351
     19 C17         7.2601   -4.8574    1.0382 C.ar      1 <0>         0.1726
     20 C18         6.9747   -4.7648    2.3970 C.ar      1 <0>        -0.1220
     21 C19         7.9305   -5.0891    3.3397 C.ar      1 <0>        -0.0095
     22 C20         9.1929   -5.5130    2.9433 C.ar      1 <0>        -0.1716
     23 C21         9.5005   -5.6212    1.5727 C.ar      1 <0>        -0.0821
     24 C22        10.8976   -6.0905    1.5069 C.2       1 <0>         0.5779
     25 O1         11.5297   -6.2950    0.4898 O.2       1 <0>        -0.4565
     26 N3         11.3548   -6.2533    2.7614 N.am      1 <0>        -0.6807
     27 C23        10.4129   -5.9261    3.6645 C.2       1 <0>         0.5827
     28 O2         10.5416   -5.9721    4.8715 O.2       1 <0>        -0.4623
     29 O3         10.0743   -5.7728   -4.1096 O.3       1 <0>        -0.4930
     30 H1         -0.9598    1.9046    0.0260 H         1 <0>         0.1185
     31 H2          1.1513    3.1692    0.0077 H         1 <0>         0.1211
     32 H3          3.3034    1.9757   -0.0192 H         1 <0>         0.1185
     33 H4          1.2204   -1.7597   -0.0193 H         1 <0>         0.1187
     34 H5         -0.9261   -0.5561    0.0079 H         1 <0>         0.1206
     35 H6          4.4523   -0.1517   -0.0419 H         1 <0>         0.3999
     36 H7          3.1419   -2.4897    0.8486 H         1 <0>         0.0634
     37 H8          3.1243   -2.4802   -0.9312 H         1 <0>         0.0631
     38 H9          5.5908   -2.2267   -0.9543 H         1 <0>         0.0789
     39 H10         5.6084   -2.2362    0.8256 H         1 <0>         0.0788
     40 H11         4.6145   -4.5079    0.8233 H         1 <0>         0.0970
     41 H12         4.5969   -4.4984   -0.9566 H         1 <0>         0.0973
     42 H13         5.9547   -4.3945   -2.8887 H         1 <0>         0.1318
     43 H14         7.6372   -4.9488   -4.5846 H         1 <0>         0.1395
     44 H15        10.4570   -5.9203   -1.5273 H         1 <0>         0.1471
     45 H16         5.9971   -4.4362    2.7173 H         1 <0>         0.1433
     46 H17         7.6954   -5.0123    4.3910 H         1 <0>         0.1507
     47 H18        12.2489   -6.5555    2.9853 H         1 <0>         0.4316
     48 H19        10.6235   -5.0237   -4.3786 H         1 <0>         0.3905
@<TRIPOS>BOND
     1    1    6 ar
     2    1    2 ar
     3    1   30 1
     4    2    3 ar
     5    2   31 1
     6    3    4 ar
     7    3   32 1
     8    4    5 ar
     9    4    7 1
    10    5    6 ar
    11    5   33 1
    12    6   34 1
    13    7    8 1
    14    7   35 1
    15    8    9 1
    16    8   36 1
    17    8   37 1
    18    9   10 1
    19    9   38 1
    20    9   39 1
    21   10   11 1
    22   10   40 1
    23   10   41 1
    24   11   19 1
    25   11   12 1
    26   12   17 ar
    27   12   13 ar
    28   13   14 ar
    29   13   42 1
    30   14   15 ar
    31   14   43 1
    32   15   16 ar
    33   15   29 1
    34   16   17 ar
    35   16   44 1
    36   17   18 1
    37   18   23 ar
    38   18   19 ar
    39   19   20 ar
    40   20   21 ar
    41   20   45 1
    42   21   22 ar
    43   21   46 1
    44   22   27 1
    45   22   23 ar
    46   23   24 1
    47   24   25 2
    48   24   26 am
    49   26   27 am
    50   26   47 1
    51   27   28 2
    52   29   48 1
@<TRIPOS>MOLECULE
CHEMBL483801
   52    55     0     0     0
SMALL
USER_CHARGES

@<TRIPOS>ATOM
      1 C1         -0.0178    1.4648    0.0101 C.3       1 <0>        -0.0560
      2 N1          0.0021   -0.0041    0.0020 N.4       1 <0>        -0.3832
      3 C2          0.6897   -0.4778   -1.2066 C.3       1 <0>        -0.0470
      4 C3          0.7126   -0.4907    1.1921 C.3       1 <0>        -0.0232
      5 C4         -0.0711   -0.1034    2.4478 C.3       1 <0>         0.0935
      6 N2          0.6375   -0.5887    3.6347 N.am      1 <0>        -0.7339
      7 C5          0.1297   -0.3619    4.8624 C.2       1 <0>         0.5286
      8 O1         -0.9138    0.2440    4.9846 O.2       1 <0>        -0.5201
      9 C6          0.8586   -0.8611    6.0833 C.3       1 <0>        -0.1634
     10 C7          0.0749   -0.4739    7.3390 C.3       1 <0>         0.1295
     11 N3          0.7835   -0.9592    8.5258 N.pl3     1 <0>        -0.5014
     12 C8          0.5950   -2.2030    9.1061 C.ar      1 <0>         0.1354
     13 C9         -0.2365   -3.2703    8.7816 C.ar      1 <0>        -0.1270
     14 C10        -0.2221   -4.4161    9.5471 C.ar      1 <0>        -0.0958
     15 C11         0.6205   -4.5200   10.6487 C.ar      1 <0>         0.0829
     16 C12         1.4537   -3.4700   10.9859 C.ar      1 <0>        -0.0740
     17 C13         1.4454   -2.3067   10.2173 C.ar      1 <0>        -0.0923
     18 C14         2.1859   -1.0369   10.2973 C.ar      1 <0>        -0.0336
     19 C15         1.7376   -0.2445    9.2209 C.ar      1 <0>         0.1692
     20 C16         2.2703    1.0274    9.0341 C.ar      1 <0>        -0.1244
     21 C17         3.2356    1.5181    9.8912 C.ar      1 <0>        -0.0091
     22 C18         3.6891    0.7467   10.9542 C.ar      1 <0>        -0.1672
     23 C19         3.1578   -0.5408   11.1661 C.ar      1 <0>        -0.0794
     24 C20         3.8468   -1.0723   12.3575 C.2       1 <0>         0.5765
     25 O2          3.6670   -2.1679   12.8506 O.2       1 <0>        -0.4536
     26 N4          4.7078   -0.1412   12.8059 N.am      1 <0>        -0.6797
     27 C21         4.6798    0.9562   12.0284 C.2       1 <0>         0.5812
     28 O3          5.3506    1.9562   12.1889 O.2       1 <0>        -0.4591
     29 O4          0.6242   -5.6564   11.3957 O.3       1 <0>        -0.4916
     30 H1          1.0047    1.8421    0.0024 H         1 <0>         0.1251
     31 H2         -0.5450    1.8259   -0.8730 H         1 <0>         0.1294
     32 H3         -0.5280    1.8163    0.9069 H         1 <0>         0.1259
     33 H4          1.7123   -0.1005   -1.2143 H         1 <0>         0.1239
     34 H5          0.7044   -1.5677   -1.2126 H         1 <0>         0.1253
     35 H6          0.1625   -0.1167   -2.0897 H         1 <0>         0.1288
     36 H7          0.8051   -1.5756    1.1418 H         1 <0>         0.1387
     37 H8          1.7055   -0.0428    1.2310 H         1 <0>         0.1379
     38 H9         -0.1636    0.9815    2.4982 H         1 <0>         0.0915
     39 H10        -1.0640   -0.5514    2.4090 H         1 <0>         0.0907
     40 H11         1.4721   -1.0733    3.5370 H         1 <0>         0.4105
     41 H12         0.9511   -1.9460    6.0329 H         1 <0>         0.1089
     42 H13         1.8515   -0.4132    6.1221 H         1 <0>         0.1086
     43 H14        -0.0176    0.6110    7.3893 H         1 <0>         0.1023
     44 H15        -0.9180   -0.9218    7.3001 H         1 <0>         0.1028
     45 H16        -0.8948   -3.2005    7.9283 H         1 <0>         0.1297
     46 H17        -0.8708   -5.2403    9.2895 H         1 <0>         0.1403
     47 H18         2.1080   -3.5501   11.8415 H         1 <0>         0.1489
     48 H19         1.9260    1.6362    8.2112 H         1 <0>         0.1412
     49 H20         3.6406    2.5069    9.7342 H         1 <0>         0.1515
     50 H21         5.2812   -0.2510   13.5806 H         1 <0>         0.4335
     51 H22         1.2583   -6.3221   11.0958 H         1 <0>         0.3921
     52 H23        -0.9445   -0.3533    0.0092 H         1 <0>         0.4305
@<TRIPOS>BOND
     1    1    2 1
     2    1   30 1
     3    1   31 1
     4    1   32 1
     5    2    3 1
     6    2    4 1
     7    2   52 1
     8    3   33 1
     9    3   34 1
    10    3   35 1
    11    4    5 1
    12    4   36 1
    13    4   37 1
    14    5    6 1
    15    5   38 1
    16    5   39 1
    17    6    7 am
    18    6   40 1
    19    7    8 2
    20    7    9 1
    21    9   10 1
    22    9   41 1
    23    9   42 1
    24   10   11 1
    25   10   43 1
    26   10   44 1
    27   11   19 1
    28   11   12 1
    29   12   17 ar
    30   12   13 ar
    31   13   14 ar
    32   13   45 1
    33   14   15 ar
    34   14   46 1
    35   15   16 ar
    36   15   29 1
    37   16   17 ar
    38   16   47 1
    39   17   18 1
    40   18   23 ar
    41   18   19 ar
    42   19   20 ar
    43   20   21 ar
    44   20   48 1
    45   21   22 ar
    46   21   49 1
    47   22   27 1
    48   22   23 ar
    49   23   24 1
    50   24   25 2
    51   24   26 am
    52   26   27 am
    53   26   50 1
    54   27   28 2
    55   29   51 1
@<TRIPOS>MOLECULE
CHEMBL486828
   59    64     0     0     0
SMALL
USER_CHARGES

@<TRIPOS>ATOM
      1 C1         -0.0167    1.3790    0.0096 C.ar      1 <0>        -0.0835
      2 C2          1.1680    2.0931    0.0021 C.ar      1 <0>        -0.1041
      3 C3          2.3785    1.4284   -0.0135 C.ar      1 <0>        -0.0037
      4 C4          2.4047    0.0329   -0.0212 C.ar      1 <0>        -0.0412
      5 C5          1.2056   -0.6814   -0.0131 C.ar      1 <0>        -0.0037
      6 C6          0.0021   -0.0041    0.0020 C.ar      1 <0>        -0.1041
      7 Cl1         1.2269   -2.4173   -0.0233 Cl        1 <0>        -0.0475
      8 C7          3.6990   -0.6866   -0.0385 C.ar      1 <0>         0.0555
      9 C8          4.3172   -1.0365    1.1608 C.ar      1 <0>        -0.0982
     10 C9          5.5303   -1.7113    1.1570 C.ar      1 <0>         0.1774
     11 C10         6.1436   -2.0466   -0.0687 C.ar      1 <0>        -0.0261
     12 C11         7.3954   -2.7439    0.2692 C.ar      1 <0>        -0.0967
     13 C12         8.4152   -3.3067   -0.4977 C.ar      1 <0>        -0.0734
     14 C13         9.4915   -3.9072    0.1280 C.ar      1 <0>         0.0775
     15 C14         9.5569   -3.9500    1.5167 C.ar      1 <0>        -0.0947
     16 C15         8.5535   -3.3970    2.2825 C.ar      1 <0>        -0.1240
     17 C16         7.4627   -2.7879    1.6702 C.ar      1 <0>         0.1441
     18 N1          6.3366   -2.1645    2.1825 N.pl3     1 <0>        -0.4950
     19 C17         6.0430   -2.0082    3.6092 C.3       1 <0>         0.1130
     20 C18         5.2400   -3.2147    4.0998 C.3       1 <0>        -0.1378
     21 C19         4.9333   -3.0514    5.5898 C.3       1 <0>         0.0588
     22 N2          4.1623   -4.2098    6.0608 N.3       1 <0>        -0.5362
     23 C20         2.8310   -4.2449    5.4383 C.3       1 <0>         0.0144
     24 C21         2.0859   -5.4966    5.9098 C.3       1 <0>         0.0626
     25 O1          2.0158   -5.4937    7.3382 O.3       1 <0>        -0.3844
     26 C22         3.2947   -5.4604    7.9773 C.3       1 <0>         0.0624
     27 C23         4.0520   -4.2084    7.5268 C.3       1 <0>         0.0178
     28 O2         10.4881   -4.4577   -0.6157 O.3       1 <0>        -0.4930
     29 C24         5.5309   -1.6996   -1.2735 C.ar      1 <0>        -0.0792
     30 C25         4.2979   -1.0200   -1.2595 C.ar      1 <0>        -0.1500
     31 C26         3.9316   -0.8164   -2.6717 C.2       1 <0>         0.5803
     32 O3          2.9288   -0.2579   -3.0706 O.2       1 <0>        -0.4520
     33 N3          4.8926   -1.3513   -3.4461 N.am      1 <0>        -0.6800
     34 C27         5.8745   -1.8840   -2.6965 C.2       1 <0>         0.5797
     35 O4          6.8706   -2.4357   -3.1201 O.2       1 <0>        -0.4546
     36 Cl2         3.8641    2.3266   -0.0240 Cl        1 <0>        -0.0479
     37 H1         -0.9605    1.9037    0.0260 H         1 <0>         0.1461
     38 H2          1.1462    3.1729    0.0082 H         1 <0>         0.1447
     39 H3         -0.9265   -0.5555    0.0083 H         1 <0>         0.1447
     40 H4          3.8492   -0.7804    2.0998 H         1 <0>         0.1424
     41 H5          8.3641   -3.2737   -1.5760 H         1 <0>         0.1473
     42 H6         10.4009   -4.4209    1.9987 H         1 <0>         0.1394
     43 H7          8.6140   -3.4364    3.3601 H         1 <0>         0.1325
     44 H8          6.9769   -1.9421    4.1673 H         1 <0>         0.0961
     45 H9          5.4626   -1.0985    3.7632 H         1 <0>         0.0917
     46 H10         4.3060   -3.2807    3.5417 H         1 <0>         0.0724
     47 H11         5.8204   -4.1243    3.9458 H         1 <0>         0.0829
     48 H12         5.8672   -2.9854    6.1479 H         1 <0>         0.0809
     49 H13         4.3529   -2.1418    5.7438 H         1 <0>         0.0397
     50 H14         2.2700   -3.3565    5.7283 H         1 <0>         0.0446
     51 H15         2.9369   -4.2713    4.3537 H         1 <0>         0.0878
     52 H16         1.0776   -5.4975    5.4958 H         1 <0>         0.0992
     53 H17         2.6190   -6.3858    5.5733 H         1 <0>         0.0605
     54 H18         3.1606   -5.4352    9.0588 H         1 <0>         0.0998
     55 H19         3.8629   -6.3486    7.7010 H         1 <0>         0.0608
     56 H20         5.0492   -4.2081    7.9668 H         1 <0>         0.0878
     57 H21         3.5105   -3.3194    7.8502 H         1 <0>         0.0445
     58 H22        11.2054   -3.8447   -0.8274 H         1 <0>         0.3902
     59 H23         4.8830   -1.3462   -4.4161 H         1 <0>         0.4320
@<TRIPOS>BOND
     1    1    6 ar
     2    1    2 ar
     3    1   37 1
     4    2    3 ar
     5    2   38 1
     6    3    4 ar
     7    3   36 1
     8    4    5 ar
     9    4    8 1
    10    5    6 ar
    11    5    7 1
    12    6   39 1
    13    8   30 ar
    14    8    9 ar
    15    9   10 ar
    16    9   40 1
    17   10   18 1
    18   10   11 ar
    19   11   12 1
    20   11   29 ar
    21   12   17 ar
    22   12   13 ar
    23   13   14 ar
    24   13   41 1
    25   14   15 ar
    26   14   28 1
    27   15   16 ar
    28   15   42 1
    29   16   17 ar
    30   16   43 1
    31   17   18 1
    32   18   19 1
    33   19   20 1
    34   19   44 1
    35   19   45 1
    36   20   21 1
    37   20   46 1
    38   20   47 1
    39   21   22 1
    40   21   48 1
    41   21   49 1
    42   22   27 1
    43   22   23 1
    44   23   24 1
    45   23   50 1
    46   23   51 1
    47   24   25 1
    48   24   52 1
    49   24   53 1
    50   25   26 1
    51   26   27 1
    52   26   54 1
    53   26   55 1
    54   27   56 1
    55   27   57 1
    56   28   58 1
    57   29   34 1
    58   29   30 ar
    59   30   31 1
    60   31   32 2
    61   31   33 am
    62   33   34 am
    63   33   59 1
    64   34   35 2
@<TRIPOS>MOLECULE
CHEMBL486828
   60    65     0     0     0
SMALL
USER_CHARGES

@<TRIPOS>ATOM
      1 C1         -0.0167    1.3790    0.0096 C.ar      1 <0>        -0.0796
      2 C2          1.1680    2.0931    0.0021 C.ar      1 <0>        -0.1012
      3 C3          2.3785    1.4284   -0.0135 C.ar      1 <0>        -0.0041
      4 C4          2.4047    0.0329   -0.0212 C.ar      1 <0>        -0.0479
      5 C5          1.2056   -0.6814   -0.0131 C.ar      1 <0>        -0.0045
      6 C6          0.0021   -0.0041    0.0020 C.ar      1 <0>        -0.1033
      7 Cl1         1.2269   -2.4173   -0.0233 Cl        1 <0>        -0.0531
      8 C7          3.6990   -0.6866   -0.0385 C.ar      1 <0>         0.0603
      9 C8          4.3172   -1.0365    1.1608 C.ar      1 <0>        -0.1030
     10 C9          5.5303   -1.7113    1.1570 C.ar      1 <0>         0.1694
     11 C10         6.1436   -2.0466   -0.0687 C.ar      1 <0>        -0.0236
     12 C11         7.3954   -2.7439    0.2692 C.ar      1 <0>        -0.0904
     13 C12         8.4152   -3.3067   -0.4977 C.ar      1 <0>        -0.0725
     14 C13         9.4915   -3.9072    0.1280 C.ar      1 <0>         0.0878
     15 C14         9.5569   -3.9500    1.5167 C.ar      1 <0>        -0.0937
     16 C15         8.5535   -3.3970    2.2825 C.ar      1 <0>        -0.1288
     17 C16         7.4627   -2.7879    1.6702 C.ar      1 <0>         0.1341
     18 N1          6.3366   -2.1645    2.1825 N.pl3     1 <0>        -0.5032
     19 C17         6.0430   -2.0082    3.6092 C.3       1 <0>         0.1216
     20 C18         5.2400   -3.2147    4.0998 C.3       1 <0>        -0.1773
     21 C19         4.9333   -3.0514    5.5898 C.3       1 <0>        -0.0059
     22 N2          4.1623   -4.2098    6.0608 N.4       1 <0>        -0.3853
     23 C20         2.8524   -4.2299    5.3953 C.3       1 <0>        -0.0497
     24 C21         2.0512   -5.4378    5.8875 C.3       1 <0>         0.0364
     25 O1          1.9168   -5.3666    7.3097 O.3       1 <0>        -0.3552
     26 C22         3.1672   -5.3205    8.0027 C.3       1 <0>         0.0352
     27 C23         3.9705   -4.1125    7.5144 C.3       1 <0>        -0.0433
     28 O2         10.4881   -4.4577   -0.6157 O.3       1 <0>        -0.4920
     29 C24         5.5309   -1.6996   -1.2735 C.ar      1 <0>        -0.0749
     30 C25         4.2979   -1.0200   -1.2595 C.ar      1 <0>        -0.1410
     31 C26         3.9316   -0.8164   -2.6717 C.2       1 <0>         0.5768
     32 O3          2.9288   -0.2579   -3.0706 O.2       1 <0>        -0.4443
     33 N3          4.8926   -1.3513   -3.4461 N.am      1 <0>        -0.6781
     34 C27         5.8745   -1.8840   -2.6965 C.2       1 <0>         0.5771
     35 O4          6.8706   -2.4357   -3.1201 O.2       1 <0>        -0.4496
     36 Cl2         3.8641    2.3266   -0.0240 Cl        1 <0>        -0.0449
     37 H1         -0.9605    1.9037    0.0260 H         1 <0>         0.1488
     38 H2          1.1462    3.1729    0.0082 H         1 <0>         0.1473
     39 H3         -0.9265   -0.5555    0.0083 H         1 <0>         0.1460
     40 H4          3.8492   -0.7804    2.0998 H         1 <0>         0.1407
     41 H5          8.3641   -3.2737   -1.5760 H         1 <0>         0.1507
     42 H6         10.4009   -4.4209    1.9987 H         1 <0>         0.1419
     43 H7          8.6140   -3.4364    3.3601 H         1 <0>         0.1289
     44 H8          6.9769   -1.9421    4.1673 H         1 <0>         0.1043
     45 H9          5.4626   -1.0985    3.7632 H         1 <0>         0.1020
     46 H10         4.3060   -3.2807    3.5417 H         1 <0>         0.0964
     47 H11         5.8204   -4.1243    3.9458 H         1 <0>         0.0981
     48 H12         5.8672   -2.9854    6.1479 H         1 <0>         0.1381
     49 H13         4.3529   -2.1418    5.7438 H         1 <0>         0.1358
     50 H14         2.3108   -3.3138    5.6308 H         1 <0>         0.1412
     51 H15         2.9936   -4.3022    4.3169 H         1 <0>         0.1422
     52 H16         1.0630   -5.4309    5.4277 H         1 <0>         0.1428
     53 H17         2.5731   -6.3556    5.6166 H         1 <0>         0.0816
     54 H18         2.9867   -5.2288    9.0737 H         1 <0>         0.1433
     55 H19         3.7273   -6.2344    7.8042 H         1 <0>         0.0817
     56 H20         4.9417   -4.0976    8.0091 H         1 <0>         0.1439
     57 H21         3.4284   -3.1964    7.7491 H         1 <0>         0.1403
     58 H22        11.2054   -3.8447   -0.8274 H         1 <0>         0.3960
     59 H23         4.8830   -1.3462   -4.4161 H         1 <0>         0.4356
     60 H24         4.6633   -5.0582    5.8436 H         1 <0>         0.4241
@<TRIPOS>BOND
     1    1    6 ar
     2    1    2 ar
     3    1   37 1
     4    2    3 ar
     5    2   38 1
     6    3    4 ar
     7    3   36 1
     8    4    5 ar
     9    4    8 1
    10    5    6 ar
    11    5    7 1
    12    6   39 1
    13    8   30 ar
    14    8    9 ar
    15    9   10 ar
    16    9   40 1
    17   10   18 1
    18   10   11 ar
    19   11   12 1
    20   11   29 ar
    21   12   17 ar
    22   12   13 ar
    23   13   14 ar
    24   13   41 1
    25   14   15 ar
    26   14   28 1
    27   15   16 ar
    28   15   42 1
    29   16   17 ar
    30   16   43 1
    31   17   18 1
    32   18   19 1
    33   19   20 1
    34   19   44 1
    35   19   45 1
    36   20   21 1
    37   20   46 1
    38   20   47 1
    39   21   22 1
    40   21   48 1
    41   21   49 1
    42   22   27 1
    43   22   23 1
    44   22   60 1
    45   23   24 1
    46   23   50 1
    47   23   51 1
    48   24   25 1
    49   24   52 1
    50   24   53 1
    51   25   26 1
    52   26   27 1
    53   26   54 1
    54   26   55 1
    55   27   56 1
    56   27   57 1
    57   28   58 1
    58   29   34 1
    59   29   30 ar
    60   30   31 1
    61   31   32 2
    62   31   33 am
    63   33   34 am
    64   33   59 1
    65   34   35 2
@<TRIPOS>MOLECULE
CHEMBL209907
   27    30     0     0     0
SMALL
USER_CHARGES

@<TRIPOS>ATOM
      1 C1         -0.0168    1.3862    0.0097 C.ar      1 <0>        -0.0966
      2 C2          1.1609    2.1025    0.0023 C.ar      1 <0>        -0.1251
      3 C3          2.3825    1.4375   -0.0134 C.ar      1 <0>         0.1369
      4 C4          2.4030    0.0342   -0.0211 C.ar      1 <0>        -0.0963
      5 C5          1.2070   -0.6819   -0.0137 C.ar      1 <0>        -0.0755
      6 C6          0.0021   -0.0041    0.0020 C.ar      1 <0>         0.0787
      7 O1         -1.1671   -0.6986    0.0094 O.3       1 <0>        -0.4932
      8 C7          3.8205   -0.3634   -0.0373 C.ar      1 <0>        -0.0361
      9 C8          4.5699    0.8308   -0.0384 C.ar      1 <0>         0.1712
     10 N1          3.6904    1.8941   -0.0239 N.pl3     1 <0>        -0.6078
     11 H1          3.9510    2.8284   -0.0218 H         1 <0>         0.4256
     12 C9          5.9601    0.7720   -0.0525 C.ar      1 <0>        -0.1211
     13 C10         6.6119   -0.4454   -0.0655 C.ar      1 <0>        -0.0100
     14 C11         5.8862   -1.6303   -0.0646 C.ar      1 <0>        -0.1709
     15 C12         4.4779   -1.5935   -0.0510 C.ar      1 <0>        -0.0828
     16 C13         4.0364   -3.0012   -0.0545 C.2       1 <0>         0.5779
     17 O2          2.8830   -3.3824   -0.0452 O.2       1 <0>        -0.4565
     18 N2          5.1243   -3.7922   -0.0704 N.am      1 <0>        -0.6805
     19 C14         6.2528   -3.0602   -0.0757 C.2       1 <0>         0.5828
     20 O3          7.3844   -3.5020   -0.0893 O.2       1 <0>        -0.4625
     21 H2         -0.9617    1.9091    0.0260 H         1 <0>         0.1403
     22 H3          1.1351    3.1822    0.0083 H         1 <0>         0.1345
     23 H4          1.2216   -1.7618   -0.0199 H         1 <0>         0.1472
     24 H5         -1.5137   -0.8947   -0.8718 H         1 <0>         0.3908
     25 H6          6.5345    1.6866   -0.0537 H         1 <0>         0.1461
     26 H7          7.6913   -0.4767   -0.0768 H         1 <0>         0.1515
     27 H8          5.0985   -4.7618   -0.0756 H         1 <0>         0.4316
@<TRIPOS>BOND
     1    1    6 ar
     2    1    2 ar
     3    1   21 1
     4    2    3 ar
     5    2   22 1
     6    3   10 1
     7    3    4 ar
     8    4    5 ar
     9    4    8 1
    10    5    6 ar
    11    5   23 1
    12    6    7 1
    13    7   24 1
    14    8   15 ar
    15    8    9 ar
    16    9   10 1
    17    9   12 ar
    18   10   11 1
    19   12   13 ar
    20   12   25 1
    21   13   14 ar
    22   13   26 1
    23   14   19 1
    24   14   15 ar
    25   15   16 1
    26   16   17 2
    27   16   18 am
    28   18   19 am
    29   18   27 1
    30   19   20 2
@<TRIPOS>MOLECULE
CHEMBL512342
   47    52     0     0     0
SMALL
USER_CHARGES

@<TRIPOS>ATOM
      1 C1         -0.0166    1.3753    0.0096 C.ar      1 <0>        -0.1161
      2 C2          1.1702    2.0869    0.0021 C.ar      1 <0>        -0.0991
      3 C3          2.3823    1.4213   -0.0135 C.ar      1 <0>        -0.1104
      4 C4          2.4147    0.0403   -0.0213 C.ar      1 <0>         0.0011
      5 C5          1.2208   -0.6823   -0.0133 C.ar      1 <0>        -0.0475
      6 C6          0.0021   -0.0041    0.0020 C.ar      1 <0>        -0.0849
      7 C7          1.2476   -2.1633   -0.0220 C.ar      1 <0>         0.0531
      8 C8          0.7443   -2.8623   -1.1176 C.ar      1 <0>        -0.0992
      9 C9          0.7641   -4.2503   -1.1370 C.ar      1 <0>         0.1795
     10 C10         1.2978   -4.9603   -0.0406 C.ar      1 <0>        -0.0310
     11 C11         1.1711   -6.3898   -0.3691 C.ar      1 <0>        -0.1004
     12 C12         1.5141   -7.5614    0.3052 C.ar      1 <0>        -0.0754
     13 C13         1.2616   -8.7878   -0.2800 C.ar      1 <0>         0.0692
     14 C14         0.6683   -8.8531   -1.5363 C.ar      1 <0>        -0.0967
     15 C15         0.3265   -7.7006   -2.2102 C.ar      1 <0>        -0.1198
     16 C16         0.5722   -6.4571   -1.6364 C.ar      1 <0>         0.1487
     17 N1          0.3368   -5.1656   -2.0786 N.pl3     1 <0>        -0.4887
     18 C17        -0.2788   -4.8200   -3.3623 C.3       1 <0>         0.1191
     19 C18         0.8102   -4.6727   -4.4269 C.3       1 <0>        -0.0134
     20 C19         0.1770   -4.3171   -5.7474 C.2       1 <0>         0.0463
     21 N2         -0.2503   -5.1643   -6.6723 N.2       1 <0>        -0.3826
     22 N3         -0.7253   -4.4687   -7.6484 N.2       1 <0>        -0.1944
     23 N4         -0.6102   -3.2176   -7.3667 N.2       1 <0>        -0.1942
     24 N5         -0.0650   -3.0972   -6.2046 N.2       1 <0>        -0.3819
     25 O1          1.5943   -9.9330    0.3737 O.3       1 <0>        -0.4943
     26 C20         1.8044   -4.2673    1.0595 C.ar      1 <0>        -0.0851
     27 C21         1.7840   -2.8596    1.0679 C.ar      1 <0>        -0.1586
     28 C22         2.3884   -2.4533    2.3485 C.2       1 <0>         0.5820
     29 O2          2.5449   -1.3094    2.7274 O.2       1 <0>        -0.4544
     30 N6          2.7379   -3.5599    3.0287 N.am      1 <0>        -0.6826
     31 C23         2.4184   -4.6701    2.3393 C.2       1 <0>         0.5815
     32 O3          2.6139   -5.8124    2.7038 O.2       1 <0>        -0.4615
     33 Cl1         3.9368   -0.7943   -0.0415 Cl        1 <0>        -0.0626
     34 H1         -0.9598    1.9012    0.0260 H         1 <0>         0.1318
     35 H2          1.1498    3.1667    0.0081 H         1 <0>         0.1322
     36 H3          3.3052    1.9822   -0.0201 H         1 <0>         0.1347
     37 H4         -0.9252   -0.5577    0.0083 H         1 <0>         0.1349
     38 H5          0.3356   -2.3202   -1.9575 H         1 <0>         0.1498
     39 H6          1.9754   -7.5105    1.2804 H         1 <0>         0.1443
     40 H7          0.4742   -9.8149   -1.9876 H         1 <0>         0.1374
     41 H8         -0.1334   -7.7627   -3.1854 H         1 <0>         0.1378
     42 H9         -0.9710   -5.6085   -3.6574 H         1 <0>         0.0957
     43 H10        -0.8204   -3.8791   -3.2640 H         1 <0>         0.0938
     44 H11         1.5024   -3.8841   -4.1319 H         1 <0>         0.0737
     45 H12         1.3518   -5.6135   -4.5253 H         1 <0>         0.0745
     46 H13         0.8923  -10.2803    0.9408 H         1 <0>         0.3854
     47 H14         3.1568   -3.5579    3.9036 H         1 <0>         0.4280
@<TRIPOS>BOND
     1    1    6 ar
     2    1    2 ar
     3    1   34 1
     4    2    3 ar
     5    2   35 1
     6    3    4 ar
     7    3   36 1
     8    4    5 ar
     9    4   33 1
    10    5    6 ar
    11    5    7 1
    12    6   37 1
    13    7   27 ar
    14    7    8 ar
    15    8    9 ar
    16    8   38 1
    17    9   17 1
    18    9   10 ar
    19   10   11 1
    20   10   26 ar
    21   11   16 ar
    22   11   12 ar
    23   12   13 ar
    24   12   39 1
    25   13   14 ar
    26   13   25 1
    27   14   15 ar
    28   14   40 1
    29   15   16 ar
    30   15   41 1
    31   16   17 1
    32   17   18 1
    33   18   19 1
    34   18   42 1
    35   18   43 1
    36   19   20 1
    37   19   44 1
    38   19   45 1
    39   20   24 2
    40   20   21 1
    41   21   22 1
    42   22   23 2
    43   23   24 1
    44   25   46 1
    45   26   31 1
    46   26   27 ar
    47   27   28 1
    48   28   29 2
    49   28   30 am
    50   30   31 am
    51   30   47 1
    52   31   32 2
@<TRIPOS>MOLECULE
CHEMBL513079
   50    55     0     0     0
SMALL
USER_CHARGES

@<TRIPOS>ATOM
      1 C1         -0.0166    1.3753    0.0096 C.ar      1 <0>        -0.1159
      2 C2          1.1702    2.0869    0.0021 C.ar      1 <0>        -0.0954
      3 C3          2.3823    1.4213   -0.0135 C.ar      1 <0>        -0.1088
      4 C4          2.4147    0.0403   -0.0213 C.ar      1 <0>         0.0000
      5 C5          1.2208   -0.6823   -0.0133 C.ar      1 <0>        -0.0552
      6 C6          0.0021   -0.0041    0.0020 C.ar      1 <0>        -0.0858
      7 C7          1.2476   -2.1633   -0.0220 C.ar      1 <0>         0.0588
      8 C8          0.7443   -2.8623   -1.1176 C.ar      1 <0>        -0.1049
      9 C9          0.7641   -4.2503   -1.1370 C.ar      1 <0>         0.1741
     10 C10         1.2978   -4.9603   -0.0406 C.ar      1 <0>        -0.0265
     11 C11         1.1711   -6.3898   -0.3691 C.ar      1 <0>        -0.0928
     12 C12         1.5141   -7.5614    0.3052 C.ar      1 <0>        -0.0738
     13 C13         1.2616   -8.7878   -0.2800 C.ar      1 <0>         0.0800
     14 C14         0.6683   -8.8531   -1.5363 C.ar      1 <0>        -0.0946
     15 C15         0.3265   -7.7006   -2.2102 C.ar      1 <0>        -0.1243
     16 C16         0.5722   -6.4571   -1.6364 C.ar      1 <0>         0.1412
     17 N1          0.3368   -5.1656   -2.0786 N.pl3     1 <0>        -0.4941
     18 C17        -0.2788   -4.8200   -3.3623 C.3       1 <0>         0.1298
     19 C18         0.8102   -4.6727   -4.4269 C.3       1 <0>        -0.1302
     20 S1          0.0480   -4.2447   -6.0164 S.3       1 <0>         0.0223
     21 C19         1.4135   -4.1122   -7.1220 C.2       1 <0>         0.2582
     22 N2          2.6807   -4.2930   -6.8143 N.2       1 <0>        -0.5388
     23 H1          0.5442   -3.6300   -8.9518 H         1 <0>         0.4464
     24 C20         3.4364   -4.1122   -7.8980 C.2       1 <0>         0.2160
     25 N3          2.6680   -3.8142   -8.9110 N.2       1 <0>        -0.3022
     26 N4          1.3461   -3.8126   -8.4374 N.pl3     1 <0>        -0.4596
     27 O1          1.5943   -9.9330    0.3737 O.3       1 <0>        -0.4928
     28 C21         1.8044   -4.2673    1.0595 C.ar      1 <0>        -0.0801
     29 C22         1.7840   -2.8596    1.0679 C.ar      1 <0>        -0.1494
     30 C23         2.3884   -2.4533    2.3485 C.2       1 <0>         0.5790
     31 O2          2.5449   -1.3094    2.7274 O.2       1 <0>        -0.4471
     32 N5          2.7379   -3.5599    3.0287 N.am      1 <0>        -0.6805
     33 C24         2.4184   -4.6701    2.3393 C.2       1 <0>         0.5793
     34 O3          2.6139   -5.8124    2.7038 O.2       1 <0>        -0.4559
     35 Cl1         3.9368   -0.7943   -0.0415 Cl        1 <0>        -0.0605
     36 H2         -0.9598    1.9012    0.0260 H         1 <0>         0.1335
     37 H3          1.1498    3.1667    0.0081 H         1 <0>         0.1347
     38 H4          3.3052    1.9822   -0.0201 H         1 <0>         0.1368
     39 H5         -0.9252   -0.5577    0.0083 H         1 <0>         0.1349
     40 H6          0.3356   -2.3202   -1.9575 H         1 <0>         0.1460
     41 H7          1.9754   -7.5105    1.2804 H         1 <0>         0.1481
     42 H8          0.4742   -9.8149   -1.9876 H         1 <0>         0.1401
     43 H9         -0.1334   -7.7627   -3.1854 H         1 <0>         0.1334
     44 H10        -0.9710   -5.6085   -3.6574 H         1 <0>         0.1076
     45 H11        -0.8204   -3.8791   -3.2640 H         1 <0>         0.1058
     46 H12         1.5024   -3.8841   -4.1319 H         1 <0>         0.1079
     47 H13         1.3518   -5.6135   -4.5252 H         1 <0>         0.1087
     48 H14         4.5125   -4.1981   -7.9323 H         1 <0>         0.2242
     49 H15         0.8923  -10.2803    0.9408 H         1 <0>         0.3908
     50 H16         3.1568   -3.5579    3.9036 H         1 <0>         0.4317
@<TRIPOS>BOND
     1    1    6 ar
     2    1    2 ar
     3    1   36 1
     4    2    3 ar
     5    2   37 1
     6    3    4 ar
     7    3   38 1
     8    4    5 ar
     9    4   35 1
    10    5    6 ar
    11    5    7 1
    12    6   39 1
    13    7   29 ar
    14    7    8 ar
    15    8    9 ar
    16    8   40 1
    17    9   17 1
    18    9   10 ar
    19   10   11 1
    20   10   28 ar
    21   11   16 ar
    22   11   12 ar
    23   12   13 ar
    24   12   41 1
    25   13   14 ar
    26   13   27 1
    27   14   15 ar
    28   14   42 1
    29   15   16 ar
    30   15   43 1
    31   16   17 1
    32   17   18 1
    33   18   19 1
    34   18   44 1
    35   18   45 1
    36   19   46 1
    37   19   47 1
    38   19   20 1
    39   20   21 1
    40   21   22 2
    41   21   26 1
    42   22   24 1
    43   23   26 1
    44   24   48 1
    45   24   25 2
    46   25   26 1
    47   27   49 1
    48   28   33 1
    49   28   29 ar
    50   29   30 1
    51   30   31 2
    52   30   32 am
    53   32   33 am
    54   32   50 1
    55   33   34 2
@<TRIPOS>MOLECULE
CHEMBL513079
   50    55     0     0     0
SMALL
USER_CHARGES

@<TRIPOS>ATOM
      1 C1         -0.0166    1.3753    0.0096 C.ar      1 <0>        -0.1154
      2 C2          1.1702    2.0869    0.0021 C.ar      1 <0>        -0.0955
      3 C3          2.3823    1.4213   -0.0135 C.ar      1 <0>        -0.1091
      4 C4          2.4147    0.0403   -0.0213 C.ar      1 <0>        -0.0002
      5 C5          1.2208   -0.6823   -0.0133 C.ar      1 <0>        -0.0548
      6 C6          0.0021   -0.0041    0.0020 C.ar      1 <0>        -0.0854
      7 C7          1.2476   -2.1633   -0.0220 C.ar      1 <0>         0.0584
      8 C8          0.7443   -2.8623   -1.1176 C.ar      1 <0>        -0.1050
      9 C9          0.7641   -4.2503   -1.1370 C.ar      1 <0>         0.1744
     10 C10         1.2978   -4.9603   -0.0406 C.ar      1 <0>        -0.0273
     11 C11         1.1711   -6.3898   -0.3691 C.ar      1 <0>        -0.0937
     12 C12         1.5141   -7.5614    0.3052 C.ar      1 <0>        -0.0741
     13 C13         1.2616   -8.7878   -0.2800 C.ar      1 <0>         0.0792
     14 C14         0.6683   -8.8531   -1.5363 C.ar      1 <0>        -0.0948
     15 C15         0.3265   -7.7006   -2.2102 C.ar      1 <0>        -0.1245
     16 C16         0.5722   -6.4571   -1.6364 C.ar      1 <0>         0.1416
     17 N1          0.3368   -5.1656   -2.0786 N.pl3     1 <0>        -0.4939
     18 C17        -0.2788   -4.8200   -3.3623 C.3       1 <0>         0.1314
     19 C18         0.8102   -4.6727   -4.4269 C.3       1 <0>        -0.1477
     20 S1          0.0480   -4.2447   -6.0164 S.3       1 <0>         0.0493
     21 C19         1.4135   -4.1122   -7.1220 C.2       1 <0>         0.2066
     22 N2          1.3363   -3.8097   -8.4219 N.2       1 <0>        -0.5194
     23 H1          4.3833   -4.1533   -8.0709 H         1 <0>         0.4458
     24 C20         2.5359   -3.7945   -8.9449 C.2       1 <0>         0.2784
     25 N3          3.4198   -4.0910   -7.9776 N.pl3     1 <0>        -0.4761
     26 N4          2.6746   -4.2885   -6.8037 N.2       1 <0>        -0.3159
     27 O1          1.5943   -9.9330    0.3737 O.3       1 <0>        -0.4931
     28 C21         1.8044   -4.2673    1.0595 C.ar      1 <0>        -0.0806
     29 C22         1.7840   -2.8596    1.0679 C.ar      1 <0>        -0.1502
     30 C23         2.3884   -2.4533    2.3485 C.2       1 <0>         0.5792
     31 O2          2.5449   -1.3094    2.7274 O.2       1 <0>        -0.4474
     32 N5          2.7379   -3.5599    3.0287 N.am      1 <0>        -0.6806
     33 C24         2.4184   -4.6701    2.3393 C.2       1 <0>         0.5794
     34 O3          2.6139   -5.8124    2.7038 O.2       1 <0>        -0.4562
     35 Cl1         3.9368   -0.7943   -0.0415 Cl        1 <0>        -0.0619
     36 H2         -0.9598    1.9012    0.0260 H         1 <0>         0.1339
     37 H3          1.1498    3.1667    0.0081 H         1 <0>         0.1347
     38 H4          3.3052    1.9822   -0.0201 H         1 <0>         0.1365
     39 H5         -0.9252   -0.5577    0.0083 H         1 <0>         0.1353
     40 H6          0.3356   -2.3202   -1.9575 H         1 <0>         0.1464
     41 H7          1.9754   -7.5105    1.2804 H         1 <0>         0.1479
     42 H8          0.4742   -9.8149   -1.9876 H         1 <0>         0.1401
     43 H9         -0.1334   -7.7627   -3.1854 H         1 <0>         0.1339
     44 H10        -0.9710   -5.6085   -3.6574 H         1 <0>         0.1082
     45 H11        -0.8204   -3.8791   -3.2640 H         1 <0>         0.1063
     46 H12         1.5024   -3.8841   -4.1319 H         1 <0>         0.1009
     47 H13         1.3518   -5.6135   -4.5252 H         1 <0>         0.1018
     48 H14         2.7741   -3.5807   -9.9764 H         1 <0>         0.2307
     49 H15         0.8923  -10.2803    0.9408 H         1 <0>         0.3907
     50 H16         3.1568   -3.5579    3.9036 H         1 <0>         0.4316
@<TRIPOS>BOND
     1    1    6 ar
     2    1    2 ar
     3    1   36 1
     4    2    3 ar
     5    2   37 1
     6    3    4 ar
     7    3   38 1
     8    4    5 ar
     9    4   35 1
    10    5    6 ar
    11    5    7 1
    12    6   39 1
    13    7   29 ar
    14    7    8 ar
    15    8    9 ar
    16    8   40 1
    17    9   17 1
    18    9   10 ar
    19   10   11 1
    20   10   28 ar
    21   11   16 ar
    22   11   12 ar
    23   12   13 ar
    24   12   41 1
    25   13   14 ar
    26   13   27 1
    27   14   15 ar
    28   14   42 1
    29   15   16 ar
    30   15   43 1
    31   16   17 1
    32   17   18 1
    33   18   19 1
    34   18   44 1
    35   18   45 1
    36   19   46 1
    37   19   47 1
    38   19   20 1
    39   20   21 1
    40   21   22 1
    41   21   26 2
    42   22   24 2
    43   23   25 1
    44   24   48 1
    45   24   25 1
    46   25   26 1
    47   27   49 1
    48   28   33 1
    49   28   29 ar
    50   29   30 1
    51   30   31 2
    52   30   32 am
    53   32   33 am
    54   32   50 1
    55   33   34 2
@<TRIPOS>MOLECULE
CHEMBL488783
   60    65     0     0     0
SMALL
USER_CHARGES

@<TRIPOS>ATOM
      1 C1         -0.0178    1.4608    0.0101 C.3       1 <0>         0.0783
      2 N1          0.0021   -0.0041    0.0020 N.pl3     1 <0>        -0.5014
      3 C2          0.0079   -0.7889   -1.1396 C.ar      1 <0>         0.1454
      4 C3         -0.0021   -0.4698   -2.4938 C.ar      1 <0>        -0.1259
      5 C4          0.0075   -1.4711   -3.4407 C.ar      1 <0>        -0.0579
      6 C5          0.0268   -2.8077   -3.0564 C.ar      1 <0>         0.0800
      7 C6          0.0370   -3.1438   -1.7158 C.ar      1 <0>        -0.0700
      8 C7          0.0279   -2.1370   -0.7508 C.ar      1 <0>        -0.1003
      9 C8          0.0342   -2.1487    0.7213 C.ar      1 <0>        -0.0298
     10 C9          0.0236   -0.7987    1.1313 C.ar      1 <0>         0.1728
     11 C10         0.0318   -0.4884    2.4845 C.ar      1 <0>        -0.1049
     12 C11         0.0542   -1.5008    3.4420 C.ar      1 <0>         0.0572
     13 C12         0.0692   -2.8431    3.0439 C.ar      1 <0>        -0.1517
     14 C13         0.0521   -3.1680    1.6740 C.ar      1 <0>        -0.0809
     15 C14         0.0726   -4.6419    1.6077 C.2       1 <0>         0.5795
     16 O1          0.0776   -5.3063    0.5906 O.2       1 <0>        -0.4569
     17 N2          0.0849   -5.1263    2.8626 N.am      1 <0>        -0.6807
     18 C15         0.0932   -4.1279    3.7643 C.2       1 <0>         0.5793
     19 O2          0.1061   -4.2634    4.9718 O.2       1 <0>        -0.4478
     20 C16         0.0628   -1.1564    4.8826 C.ar      1 <0>        -0.0544
     21 C17        -1.0364   -0.5178    5.4565 C.ar      1 <0>        -0.0862
     22 C18        -1.0229   -0.1999    6.7989 C.ar      1 <0>        -0.1158
     23 C19         0.0781   -0.5132    7.5765 C.ar      1 <0>        -0.0957
     24 C20         1.1717   -1.1459    7.0144 C.ar      1 <0>        -0.1089
     25 C21         1.1683   -1.4748    5.6727 C.ar      1 <0>         0.0000
     26 Cl1         2.5387   -2.2756    4.9695 Cl        1 <0>        -0.0615
     27 O3          0.0352   -3.7856   -4.0014 O.3       1 <0>        -0.4874
     28 C22        -0.0035   -1.1148   -4.9049 C.3       1 <0>        -0.0775
     29 C23         1.4163   -1.2183   -5.4656 C.3       1 <0>        -0.1091
     30 C24         1.4051   -0.8566   -6.9522 C.3       1 <0>        -0.1349
     31 C25         2.8249   -0.9601   -7.5130 C.3       1 <0>         0.1043
     32 N3          2.8142   -0.6138   -8.9364 N.pl3     1 <0>        -0.4492
     33 C26         2.6235   -1.4879   -9.9652 C.2       1 <0>        -0.0168
     34 C27         2.6815   -0.7969  -11.1218 C.2       1 <0>        -0.2025
     35 C28         2.9166    0.5533  -10.7950 C.2       1 <0>        -0.2022
     36 C29         2.9875    0.6369   -9.4510 C.2       1 <0>        -0.0182
     37 H1          1.0048    1.8381    0.0023 H         1 <0>         0.0744
     38 H2         -0.5450    1.8219   -0.8730 H         1 <0>         0.0874
     39 H3         -0.5280    1.8123    0.9069 H         1 <0>         0.0865
     40 H4         -0.0178    0.5647   -2.8036 H         1 <0>         0.1316
     41 H5          0.0520   -4.1815   -1.4168 H         1 <0>         0.1481
     42 H6          0.0211    0.5452    2.7974 H         1 <0>         0.1453
     43 H7          0.0987   -6.0698    3.0874 H         1 <0>         0.4315
     44 H8         -1.8964   -0.2722    4.8511 H         1 <0>         0.1345
     45 H9         -1.8735    0.2949    7.2439 H         1 <0>         0.1336
     46 H10         0.0834   -0.2620    8.6269 H         1 <0>         0.1349
     47 H11         2.0281   -1.3874    7.6264 H         1 <0>         0.1370
     48 H12         0.9210   -4.0568   -4.2788 H         1 <0>         0.3862
     49 H13        -0.6570   -1.8027   -5.4413 H         1 <0>         0.0860
     50 H14        -0.3694   -0.0955   -5.0281 H         1 <0>         0.0753
     51 H15         2.0698   -0.5304   -4.9292 H         1 <0>         0.0675
     52 H16         1.7822   -2.2377   -5.3425 H         1 <0>         0.0655
     53 H17         0.7516   -1.5445   -7.4886 H         1 <0>         0.0734
     54 H18         1.0393    0.1627   -7.0754 H         1 <0>         0.0713
     55 H19         3.4785   -0.2722   -6.9765 H         1 <0>         0.0879
     56 H20         3.1908   -1.9795   -7.3898 H         1 <0>         0.0888
     57 H21         2.4556   -2.5505   -9.8703 H         1 <0>         0.1591
     58 H22         2.5685   -1.2037  -12.1158 H         1 <0>         0.1340
     59 H23         3.0170    1.3717  -11.4926 H         1 <0>         0.1338
     60 H24         3.1550    1.5386   -8.8806 H         1 <0>         0.1583
@<TRIPOS>BOND
     1    1    2 1
     2    1   37 1
     3    1   38 1
     4    1   39 1
     5    2   10 1
     6    2    3 1
     7    3    8 ar
     8    3    4 ar
     9    4    5 ar
    10    4   40 1
    11    5    6 ar
    12    5   28 1
    13    6    7 ar
    14    6   27 1
    15    7    8 ar
    16    7   41 1
    17    8    9 1
    18    9   14 ar
    19    9   10 ar
    20   10   11 ar
    21   11   12 ar
    22   11   42 1
    23   12   13 ar
    24   12   20 1
    25   13   18 1
    26   13   14 ar
    27   14   15 1
    28   15   16 2
    29   15   17 am
    30   17   18 am
    31   17   43 1
    32   18   19 2
    33   20   25 ar
    34   20   21 ar
    35   21   22 ar
    36   21   44 1
    37   22   23 ar
    38   22   45 1
    39   23   24 ar
    40   23   46 1
    41   24   25 ar
    42   24   47 1
    43   25   26 1
    44   27   48 1
    45   28   29 1
    46   28   49 1
    47   28   50 1
    48   29   30 1
    49   29   51 1
    50   29   52 1
    51   30   31 1
    52   30   53 1
    53   30   54 1
    54   31   32 1
    55   31   55 1
    56   31   56 1
    57   32   36 1
    58   32   33 1
    59   33   34 2
    60   33   57 1
    61   34   35 1
    62   34   58 1
    63   35   36 2
    64   35   59 1
    65   36   60 1
@<TRIPOS>MOLECULE
CHEMBL518903
   57    62     0     0     0
SMALL
USER_CHARGES

@<TRIPOS>ATOM
      1 C1         -0.0166    1.3753    0.0096 C.ar      1 <0>        -0.1159
      2 C2          1.1702    2.0869    0.0021 C.ar      1 <0>        -0.0955
      3 C3          2.3823    1.4213   -0.0135 C.ar      1 <0>        -0.1088
      4 C4          2.4147    0.0403   -0.0213 C.ar      1 <0>        -0.0003
      5 C5          1.2208   -0.6823   -0.0133 C.ar      1 <0>        -0.0551
      6 C6          0.0021   -0.0041    0.0020 C.ar      1 <0>        -0.0861
      7 C7          1.2476   -2.1633   -0.0220 C.ar      1 <0>         0.0571
      8 C8          0.7443   -2.8623   -1.1176 C.ar      1 <0>        -0.1049
      9 C9          0.7641   -4.2503   -1.1370 C.ar      1 <0>         0.1731
     10 C10         1.2978   -4.9603   -0.0406 C.ar      1 <0>        -0.0295
     11 C11         1.1711   -6.3898   -0.3691 C.ar      1 <0>        -0.1001
     12 C12         1.5141   -7.5614    0.3052 C.ar      1 <0>        -0.0711
     13 C13         1.2616   -8.7878   -0.2800 C.ar      1 <0>         0.0819
     14 C14         0.6683   -8.8531   -1.5363 C.ar      1 <0>        -0.0589
     15 C15         0.3265   -7.7006   -2.2102 C.ar      1 <0>        -0.1265
     16 C16         0.5722   -6.4571   -1.6364 C.ar      1 <0>         0.1445
     17 N1          0.3368   -5.1656   -2.0786 N.pl3     1 <0>        -0.6072
     18 H1         -0.0708   -4.9367   -2.9286 H         1 <0>         0.4257
     19 C17         0.3975  -10.1952   -2.1661 C.3       1 <0>        -0.0725
     20 C18         1.6870  -10.7371   -2.7860 C.3       1 <0>        -0.1104
     21 C19         1.4121  -12.0997   -3.4254 C.3       1 <0>        -0.1334
     22 C20         2.7016  -12.6416   -4.0454 C.3       1 <0>         0.1038
     23 N2          2.4384  -13.9463   -4.6575 N.pl3     1 <0>        -0.4486
     24 C21         2.5401  -15.1528   -4.0309 C.2       1 <0>        -0.0165
     25 C22         2.2199  -16.1169   -4.9177 C.2       1 <0>        -0.2032
     26 C23         1.9091  -15.4822   -6.1366 C.2       1 <0>        -0.2027
     27 C24         2.0455  -14.1542   -5.9465 C.2       1 <0>        -0.0184
     28 O1          1.5943   -9.9330    0.3737 O.3       1 <0>        -0.4882
     29 C25         1.8044   -4.2673    1.0595 C.ar      1 <0>        -0.0815
     30 C26         1.7840   -2.8596    1.0679 C.ar      1 <0>        -0.1500
     31 C27         2.3884   -2.4533    2.3485 C.2       1 <0>         0.5789
     32 O2          2.5449   -1.3094    2.7274 O.2       1 <0>        -0.4472
     33 N3          2.7379   -3.5599    3.0287 N.am      1 <0>        -0.6805
     34 C28         2.4184   -4.6701    2.3393 C.2       1 <0>         0.5793
     35 O3          2.6139   -5.8124    2.7038 O.2       1 <0>        -0.4567
     36 Cl1         3.9368   -0.7943   -0.0415 Cl        1 <0>        -0.0611
     37 H2         -0.9598    1.9012    0.0260 H         1 <0>         0.1336
     38 H3          1.1498    3.1667    0.0081 H         1 <0>         0.1349
     39 H4          3.3052    1.9822   -0.0201 H         1 <0>         0.1371
     40 H5         -0.9252   -0.5577    0.0083 H         1 <0>         0.1348
     41 H6          0.3356   -2.3202   -1.9575 H         1 <0>         0.1473
     42 H7          1.9754   -7.5105    1.2804 H         1 <0>         0.1480
     43 H8         -0.1334   -7.7627   -3.1854 H         1 <0>         0.1333
     44 H9          0.0412  -10.8887   -1.4044 H         1 <0>         0.0788
     45 H10        -0.3607  -10.0863   -2.9416 H         1 <0>         0.0741
     46 H11         2.0434  -10.0436   -3.5477 H         1 <0>         0.0653
     47 H12         2.4452  -10.8460   -2.0105 H         1 <0>         0.0761
     48 H13         1.0558  -12.7932   -2.6637 H         1 <0>         0.0717
     49 H14         0.6539  -11.9908   -4.2009 H         1 <0>         0.0694
     50 H15         3.0580  -11.9481   -4.8070 H         1 <0>         0.0879
     51 H16         3.4598  -12.7505   -3.2698 H         1 <0>         0.0896
     52 H17         2.8282  -15.3095   -3.0018 H         1 <0>         0.1590
     53 H18         2.2045  -17.1801   -4.7285 H         1 <0>         0.1338
     54 H19         1.6116  -15.9695   -7.0534 H         1 <0>         0.1336
     55 H20         1.8752  -13.3876   -6.6879 H         1 <0>         0.1581
     56 H21         0.8923  -10.2803    0.9408 H         1 <0>         0.3881
     57 H22         3.1568   -3.5579    3.9036 H         1 <0>         0.4316
@<TRIPOS>BOND
     1    1    6 ar
     2    1    2 ar
     3    1   37 1
     4    2    3 ar
     5    2   38 1
     6    3    4 ar
     7    3   39 1
     8    4    5 ar
     9    4   36 1
    10    5    6 ar
    11    5    7 1
    12    6   40 1
    13    7   30 ar
    14    7    8 ar
    15    8    9 ar
    16    8   41 1
    17    9   17 1
    18    9   10 ar
    19   10   11 1
    20   10   29 ar
    21   11   16 ar
    22   11   12 ar
    23   12   13 ar
    24   12   42 1
    25   13   14 ar
    26   13   28 1
    27   14   15 ar
    28   14   19 1
    29   15   16 ar
    30   15   43 1
    31   16   17 1
    32   17   18 1
    33   19   20 1
    34   19   44 1
    35   19   45 1
    36   20   21 1
    37   20   46 1
    38   20   47 1
    39   21   22 1
    40   21   48 1
    41   21   49 1
    42   22   23 1
    43   22   50 1
    44   22   51 1
    45   23   27 1
    46   23   24 1
    47   24   25 2
    48   24   52 1
    49   25   26 1
    50   25   53 1
    51   26   27 2
    52   26   54 1
    53   27   55 1
    54   28   56 1
    55   29   34 1
    56   29   30 ar
    57   30   31 1
    58   31   32 2
    59   31   33 am
    60   33   34 am
    61   33   57 1
    62   34   35 2
@<TRIPOS>MOLECULE
CHEMBL472209
   51    56     0     0     0
SMALL
USER_CHARGES

@<TRIPOS>ATOM
      1 C1         -0.0166    1.3753    0.0096 C.ar      1 <0>        -0.1160
      2 C2          1.1702    2.0869    0.0021 C.ar      1 <0>        -0.0971
      3 C3          2.3823    1.4213   -0.0135 C.ar      1 <0>        -0.1092
      4 C4          2.4147    0.0403   -0.0213 C.ar      1 <0>         0.0012
      5 C5          1.2208   -0.6823   -0.0133 C.ar      1 <0>        -0.0523
      6 C6          0.0021   -0.0041    0.0020 C.ar      1 <0>        -0.0849
      7 C7          1.2476   -2.1633   -0.0220 C.ar      1 <0>         0.0570
      8 C8          0.7443   -2.8623   -1.1176 C.ar      1 <0>        -0.1041
      9 C9          0.7641   -4.2503   -1.1370 C.ar      1 <0>         0.1761
     10 C10         1.2978   -4.9603   -0.0406 C.ar      1 <0>        -0.0276
     11 C11         1.1711   -6.3898   -0.3691 C.ar      1 <0>        -0.0963
     12 C12         1.5141   -7.5614    0.3052 C.ar      1 <0>        -0.0745
     13 C13         1.2616   -8.7878   -0.2800 C.ar      1 <0>         0.0738
     14 C14         0.6683   -8.8531   -1.5363 C.ar      1 <0>        -0.0942
     15 C15         0.3265   -7.7006   -2.2102 C.ar      1 <0>        -0.1239
     16 C16         0.5722   -6.4571   -1.6364 C.ar      1 <0>         0.1446
     17 N1          0.3368   -5.1656   -2.0786 N.pl3     1 <0>        -0.4873
     18 C17        -0.2788   -4.8200   -3.3623 C.3       1 <0>         0.1250
     19 C18         0.8102   -4.6727   -4.4269 C.3       1 <0>        -0.6462
     20 S1          0.0480   -4.2447   -6.0164 S.o2      1 <0>         2.5628
     21 O1         -0.7187   -5.3382   -6.5017 O.2       1 <0>        -0.9330
     22 O2         -0.5097   -2.9391   -5.9560 O.2       1 <0>        -0.9339
     23 C19         1.3962   -4.1060   -7.1423 C.2       1 <0>        -0.4002
     24 N2          1.8968   -5.0987   -7.8767 N.2       1 <0>        -0.5479
     25 C20         2.8905   -4.6556   -8.6033 C.2       1 <0>         0.1118
     26 N3          3.0470   -3.3463   -8.3421 N.2       1 <0>        -0.4061
     27 N4          2.0638   -3.0114   -7.3967 N.2       1 <0>        -0.3073
     28 O3          1.5943   -9.9330    0.3737 O.3       1 <0>        -0.4932
     29 C21         1.8044   -4.2673    1.0595 C.ar      1 <0>        -0.0839
     30 C22         1.7840   -2.8596    1.0679 C.ar      1 <0>        -0.1544
     31 C23         2.3884   -2.4533    2.3485 C.2       1 <0>         0.5815
     32 O4          2.5449   -1.3094    2.7274 O.2       1 <0>        -0.4510
     33 N5          2.7379   -3.5599    3.0287 N.am      1 <0>        -0.6816
     34 C24         2.4184   -4.6701    2.3393 C.2       1 <0>         0.5816
     35 O5          2.6139   -5.8124    2.7038 O.2       1 <0>        -0.4598
     36 Cl1         3.9368   -0.7943   -0.0415 Cl        1 <0>        -0.0612
     37 H1         -0.9598    1.9012    0.0260 H         1 <0>         0.1327
     38 H2          1.1498    3.1667    0.0081 H         1 <0>         0.1332
     39 H3          3.3052    1.9822   -0.0201 H         1 <0>         0.1358
     40 H4         -0.9252   -0.5577    0.0083 H         1 <0>         0.1354
     41 H5          0.3356   -2.3202   -1.9575 H         1 <0>         0.1512
     42 H6          1.9754   -7.5105    1.2804 H         1 <0>         0.1463
     43 H7          0.4742   -9.8149   -1.9876 H         1 <0>         0.1402
     44 H8         -0.1334   -7.7627   -3.1854 H         1 <0>         0.1388
     45 H9         -0.9710   -5.6085   -3.6574 H         1 <0>         0.1118
     46 H10        -0.8204   -3.8791   -3.2640 H         1 <0>         0.1098
     47 H11         1.5024   -3.8841   -4.1319 H         1 <0>         0.1415
     48 H12         1.3518   -5.6135   -4.5253 H         1 <0>         0.1432
     49 H13         3.4822   -5.2400   -9.2925 H         1 <0>         0.1753
     50 H14         0.8923  -10.2803    0.9408 H         1 <0>         0.3871
     51 H15         3.1568   -3.5579    3.9036 H         1 <0>         0.4292
@<TRIPOS>BOND
     1    1    6 ar
     2    1    2 ar
     3    1   37 1
     4    2    3 ar
     5    2   38 1
     6    3    4 ar
     7    3   39 1
     8    4    5 ar
     9    4   36 1
    10    5    6 ar
    11    5    7 1
    12    6   40 1
    13    7   30 ar
    14    7    8 ar
    15    8    9 ar
    16    8   41 1
    17    9   17 1
    18    9   10 ar
    19   10   11 1
    20   10   29 ar
    21   11   16 ar
    22   11   12 ar
    23   12   13 ar
    24   12   42 1
    25   13   14 ar
    26   13   28 1
    27   14   15 ar
    28   14   43 1
    29   15   16 ar
    30   15   44 1
    31   16   17 1
    32   17   18 1
    33   18   19 1
    34   18   45 1
    35   18   46 1
    36   19   20 1
    37   19   47 1
    38   19   48 1
    39   20   21 2
    40   20   22 2
    41   20   23 1
    42   23   24 1
    43   23   27 2
    44   24   25 2
    45   25   49 1
    46   25   26 1
    47   26   27 1
    48   28   50 1
    49   29   34 1
    50   29   30 ar
    51   30   31 1
    52   31   32 2
    53   31   33 am
    54   33   34 am
    55   33   51 1
    56   34   35 2
@<TRIPOS>MOLECULE
CHEMBL508294
   50    55     0     0     0
SMALL
USER_CHARGES

@<TRIPOS>ATOM
      1 C1         -0.0167    1.3790    0.0096 C.ar      1 <0>        -0.0821
      2 C2          1.1680    2.0931    0.0021 C.ar      1 <0>        -0.1034
      3 C3          2.3785    1.4284   -0.0135 C.ar      1 <0>        -0.0033
      4 C4          2.4047    0.0329   -0.0212 C.ar      1 <0>        -0.0438
      5 C5          1.2056   -0.6814   -0.0131 C.ar      1 <0>        -0.0035
      6 C6          0.0021   -0.0041    0.0020 C.ar      1 <0>        -0.1034
      7 Cl1         1.2269   -2.4173   -0.0233 Cl        1 <0>        -0.0480
      8 C7          3.6990   -0.6866   -0.0385 C.ar      1 <0>         0.0577
      9 C8          4.3172   -1.0365    1.1608 C.ar      1 <0>        -0.0985
     10 C9          5.5303   -1.7113    1.1570 C.ar      1 <0>         0.1739
     11 C10         6.1436   -2.0466   -0.0687 C.ar      1 <0>        -0.0233
     12 C11         7.3954   -2.7439    0.2692 C.ar      1 <0>        -0.0928
     13 C12         8.4152   -3.3067   -0.4977 C.ar      1 <0>        -0.0728
     14 C13         9.4915   -3.9072    0.1280 C.ar      1 <0>         0.0811
     15 C14         9.5569   -3.9500    1.5167 C.ar      1 <0>        -0.0935
     16 C15         8.5535   -3.3970    2.2825 C.ar      1 <0>        -0.1255
     17 C16         7.4627   -2.7879    1.6702 C.ar      1 <0>         0.1400
     18 N1          6.3366   -2.1645    2.1825 N.pl3     1 <0>        -0.4974
     19 C17         6.0430   -2.0082    3.6092 C.3       1 <0>         0.1003
     20 C18         5.2400   -3.2147    4.0998 C.3       1 <0>         0.0873
     21 N2          4.9463   -3.0584    5.5265 N.pl3     1 <0>        -0.4611
     22 C19         5.7235   -3.4891    6.5677 C.2       1 <0>        -0.0572
     23 C20         5.0845   -3.1411    7.7009 C.2       1 <0>        -0.0233
     24 N3          3.9481   -2.5150    7.3609 N.2       1 <0>        -0.4895
     25 C21         3.8611   -2.4573    6.0601 C.2       1 <0>         0.1839
     26 O1         10.4881   -4.4577   -0.6157 O.3       1 <0>        -0.4925
     27 C22         5.5309   -1.6996   -1.2735 C.ar      1 <0>        -0.0788
     28 C23         4.2979   -1.0200   -1.2595 C.ar      1 <0>        -0.1461
     29 C24         3.9316   -0.8164   -2.6717 C.2       1 <0>         0.5798
     30 O2          2.9288   -0.2579   -3.0706 O.2       1 <0>        -0.4495
     31 N4          4.8926   -1.3513   -3.4461 N.am      1 <0>        -0.6794
     32 C25         5.8745   -1.8840   -2.6965 C.2       1 <0>         0.5797
     33 O3          6.8706   -2.4357   -3.1201 O.2       1 <0>        -0.4538
     34 Cl2         3.8641    2.3266   -0.0240 Cl        1 <0>        -0.0476
     35 H1         -0.9605    1.9037    0.0260 H         1 <0>         0.1467
     36 H2          1.1462    3.1729    0.0082 H         1 <0>         0.1452
     37 H3         -0.9265   -0.5555    0.0083 H         1 <0>         0.1452
     38 H4          3.8492   -0.7804    2.0998 H         1 <0>         0.1440
     39 H5          8.3641   -3.2737   -1.5760 H         1 <0>         0.1489
     40 H6         10.4009   -4.4209    1.9987 H         1 <0>         0.1408
     41 H7          8.6140   -3.4364    3.3601 H         1 <0>         0.1317
     42 H8          6.9769   -1.9421    4.1673 H         1 <0>         0.1029
     43 H9          5.4626   -1.0985    3.7632 H         1 <0>         0.1013
     44 H10         4.3060   -3.2807    3.5417 H         1 <0>         0.1023
     45 H11         5.8204   -4.1243    3.9458 H         1 <0>         0.1014
     46 H12         6.6676   -4.0085    6.4945 H         1 <0>         0.1753
     47 H13         5.4271   -3.3326    8.7071 H         1 <0>         0.1717
     48 H14         3.0537   -2.0060    5.5027 H         1 <0>         0.2046
     49 H15        11.2054   -3.8447   -0.8274 H         1 <0>         0.3917
     50 H16         4.8830   -1.3462   -4.4161 H         1 <0>         0.4328
@<TRIPOS>BOND
     1    1    6 ar
     2    1    2 ar
     3    1   35 1
     4    2    3 ar
     5    2   36 1
     6    3    4 ar
     7    3   34 1
     8    4    5 ar
     9    4    8 1
    10    5    6 ar
    11    5    7 1
    12    6   37 1
    13    8   28 ar
    14    8    9 ar
    15    9   10 ar
    16    9   38 1
    17   10   18 1
    18   10   11 ar
    19   11   12 1
    20   11   27 ar
    21   12   17 ar
    22   12   13 ar
    23   13   14 ar
    24   13   39 1
    25   14   15 ar
    26   14   26 1
    27   15   16 ar
    28   15   40 1
    29   16   17 ar
    30   16   41 1
    31   17   18 1
    32   18   19 1
    33   19   20 1
    34   19   42 1
    35   19   43 1
    36   20   21 1
    37   20   44 1
    38   20   45 1
    39   21   25 1
    40   21   22 1
    41   22   23 2
    42   22   46 1
    43   23   24 1
    44   23   47 1
    45   24   25 2
    46   25   48 1
    47   26   49 1
    48   27   32 1
    49   27   28 ar
    50   28   29 1
    51   29   30 2
    52   29   31 am
    53   31   32 am
    54   31   50 1
    55   32   33 2
@<TRIPOS>MOLECULE
CHEMBL508294
   51    56     0     0     0
SMALL
USER_CHARGES

@<TRIPOS>ATOM
      1 C1         -0.0167    1.3790    0.0096 C.ar      1 <0>        -0.0791
      2 C2          1.1680    2.0931    0.0021 C.ar      1 <0>        -0.1017
      3 C3          2.3785    1.4284   -0.0135 C.ar      1 <0>        -0.0042
      4 C4          2.4047    0.0329   -0.0212 C.ar      1 <0>        -0.0495
      5 C5          1.2056   -0.6814   -0.0131 C.ar      1 <0>        -0.0050
      6 C6          0.0021   -0.0041    0.0020 C.ar      1 <0>        -0.1028
      7 Cl1         1.2269   -2.4173   -0.0233 Cl        1 <0>        -0.0498
      8 C7          3.6990   -0.6866   -0.0385 C.ar      1 <0>         0.0611
      9 C8          4.3172   -1.0365    1.1608 C.ar      1 <0>        -0.1031
     10 C9          5.5303   -1.7113    1.1570 C.ar      1 <0>         0.1663
     11 C10         6.1436   -2.0466   -0.0687 C.ar      1 <0>        -0.0195
     12 C11         7.3954   -2.7439    0.2692 C.ar      1 <0>        -0.0868
     13 C12         8.4152   -3.3067   -0.4977 C.ar      1 <0>        -0.0722
     14 C13         9.4915   -3.9072    0.1280 C.ar      1 <0>         0.0914
     15 C14         9.5569   -3.9500    1.5167 C.ar      1 <0>        -0.0923
     16 C15         8.5535   -3.3970    2.2825 C.ar      1 <0>        -0.1276
     17 C16         7.4627   -2.7879    1.6702 C.ar      1 <0>         0.1306
     18 N1          6.3366   -2.1645    2.1825 N.pl3     1 <0>        -0.5030
     19 C17         6.0430   -2.0082    3.6092 C.3       1 <0>         0.1018
     20 C18         5.2400   -3.2147    4.0998 C.3       1 <0>         0.0689
     21 N2          4.9463   -3.0584    5.5265 N.pl3     1 <0>        -0.4085
     22 C19         5.7238   -3.4887    6.5677 C.2       1 <0>         0.0255
     23 C20         5.0847   -3.1409    7.7009 C.2       1 <0>         0.0089
     24 N3          3.9480   -2.5153    7.3609 N.pl3     1 <0>        -0.4733
     25 C21         3.8609   -2.4577    6.0601 C.cat     1 <0>         0.2900
     26 O1         10.4881   -4.4577   -0.6157 O.3       1 <0>        -0.4912
     27 C22         5.5309   -1.6996   -1.2735 C.ar      1 <0>        -0.0740
     28 C23         4.2979   -1.0200   -1.2595 C.ar      1 <0>        -0.1379
     29 C24         3.9316   -0.8164   -2.6717 C.2       1 <0>         0.5767
     30 O2          2.9288   -0.2579   -3.0706 O.2       1 <0>        -0.4430
     31 N4          4.8926   -1.3513   -3.4461 N.am      1 <0>        -0.6775
     32 C25         5.8745   -1.8840   -2.6965 C.2       1 <0>         0.5772
     33 O3          6.8706   -2.4357   -3.1201 O.2       1 <0>        -0.4483
     34 Cl2         3.8641    2.3266   -0.0240 Cl        1 <0>        -0.0456
     35 H1         -0.9605    1.9037    0.0260 H         1 <0>         0.1488
     36 H2          1.1462    3.1729    0.0082 H         1 <0>         0.1471
     37 H3         -0.9265   -0.5555    0.0083 H         1 <0>         0.1465
     38 H4          3.8492   -0.7804    2.0998 H         1 <0>         0.1405
     39 H5          8.3641   -3.2737   -1.5760 H         1 <0>         0.1520
     40 H6         10.4009   -4.4209    1.9987 H         1 <0>         0.1436
     41 H7          8.6140   -3.4364    3.3601 H         1 <0>         0.1293
     42 H8          6.9769   -1.9421    4.1673 H         1 <0>         0.1098
     43 H9          5.4626   -1.0985    3.7632 H         1 <0>         0.1056
     44 H10         4.3060   -3.2807    3.5417 H         1 <0>         0.1292
     45 H11         5.8204   -4.1243    3.9458 H         1 <0>         0.1335
     46 H12         6.6681   -4.0077    6.4945 H         1 <0>         0.2248
     47 H13         5.4274   -3.3321    8.7071 H         1 <0>         0.2262
     48 H14         3.0532   -2.0068    5.5027 H         1 <0>         0.2608
     49 H15        11.2054   -3.8447   -0.8274 H         1 <0>         0.3966
     50 H16         4.8830   -1.3462   -4.4161 H         1 <0>         0.4362
     51 H17         3.2955   -2.1586    7.9837 H         1 <0>         0.4672
@<TRIPOS>BOND
     1    1    6 ar
     2    1    2 ar
     3    1   35 1
     4    2    3 ar
     5    2   36 1
     6    3    4 ar
     7    3   34 1
     8    4    5 ar
     9    4    8 1
    10    5    6 ar
    11    5    7 1
    12    6   37 1
    13    8   28 ar
    14    8    9 ar
    15    9   10 ar
    16    9   38 1
    17   10   18 1
    18   10   11 ar
    19   11   12 1
    20   11   27 ar
    21   12   17 ar
    22   12   13 ar
    23   13   14 ar
    24   13   39 1
    25   14   15 ar
    26   14   26 1
    27   15   16 ar
    28   15   40 1
    29   16   17 ar
    30   16   41 1
    31   17   18 1
    32   18   19 1
    33   19   20 1
    34   19   42 1
    35   19   43 1
    36   20   21 1
    37   20   44 1
    38   20   45 1
    39   21   25 1
    40   21   22 1
    41   22   23 2
    42   22   46 1
    43   23   24 1
    44   23   47 1
    45   24   25 2
    46   24   51 1
    47   25   48 1
    48   26   49 1
    49   27   32 1
    50   27   28 ar
    51   28   29 1
    52   29   30 2
    53   29   31 am
    54   31   32 am
    55   31   50 1
    56   32   33 2
@<TRIPOS>MOLECULE
CHEMBL452079
   58    63     0     0     0
SMALL
USER_CHARGES

@<TRIPOS>ATOM
      1 C1         -0.0167    1.3792    0.0096 C.ar      1 <0>        -0.1060
      2 C2          1.1685    2.0927    0.0021 C.ar      1 <0>        -0.1238
      3 C3          2.3774    1.4276   -0.0135 C.ar      1 <0>        -0.0969
      4 C4          2.4028    0.0333   -0.0212 C.ar      1 <0>        -0.0696
      5 C5          1.2047   -0.6805   -0.0131 C.ar      1 <0>        -0.0698
      6 C6          0.0021   -0.0041    0.0020 C.ar      1 <0>        -0.1186
      7 C7          3.6973   -0.6869   -0.0384 C.ar      1 <0>         0.0677
      8 C8          4.6754   -0.3384   -0.9678 C.ar      1 <0>        -0.1137
      9 C9          5.8922   -1.0065   -0.9938 C.ar      1 <0>         0.1770
     10 C10         6.1423   -2.0459   -0.0730 C.ar      1 <0>        -0.0341
     11 C11         7.4991   -2.5393   -0.3607 C.ar      1 <0>        -0.0949
     12 C12         8.2934   -3.5392    0.1999 C.ar      1 <0>        -0.0745
     13 C13         9.5594   -3.7717   -0.3037 C.ar      1 <0>         0.0784
     14 C14        10.0393   -3.0111   -1.3648 C.ar      1 <0>        -0.0958
     15 C15         9.2614   -2.0209   -1.9249 C.ar      1 <0>        -0.1250
     16 C16         7.9844   -1.7730   -1.4314 C.ar      1 <0>         0.1410
     17 N1          7.0072   -0.8611   -1.7955 N.pl3     1 <0>        -0.4975
     18 C17         7.1380    0.1182   -2.8772 C.3       1 <0>         0.1162
     19 C18         7.7289    1.4156   -2.3217 C.3       1 <0>        -0.1527
     20 C19         7.8655    2.4384   -3.4514 C.3       1 <0>         0.1301
     21 N2          8.4313    3.6807   -2.9196 N.pl3     1 <0>        -0.7503
     22 C20         8.6504    4.7679   -3.7686 C.ar      1 <0>         0.2127
     23 C21         8.3271    4.6750   -5.1163 C.ar      1 <0>        -0.1980
     24 C22         8.5446    5.7520   -5.9529 C.ar      1 <0>        -0.0731
     25 C23         9.0841    6.9220   -5.4504 C.ar      1 <0>        -0.1777
     26 C24         9.4071    7.0179   -4.1093 C.ar      1 <0>        -0.0724
     27 C25         9.1869    5.9466   -3.2660 C.ar      1 <0>        -0.1949
     28 O1         10.3376   -4.7456    0.2396 O.3       1 <0>        -0.4931
     29 C26         5.1676   -2.4003    0.8608 C.ar      1 <0>        -0.0781
     30 C27         3.9391   -1.7132    0.8827 C.ar      1 <0>        -0.1648
     31 C28         3.1555   -2.3189    1.9736 C.2       1 <0>         0.5797
     32 O2          2.0310   -1.9966    2.3024 O.2       1 <0>        -0.4523
     33 N3          3.8925   -3.2886    2.5445 N.am      1 <0>        -0.6805
     34 C29         5.0881   -3.4048    1.9386 C.2       1 <0>         0.5786
     35 O3          5.9616   -4.1941    2.2386 O.2       1 <0>        -0.4558
     36 H1         -0.9604    1.9042    0.0260 H         1 <0>         0.1242
     37 H2          1.1476    3.1725    0.0082 H         1 <0>         0.1256
     38 H3          3.3020    1.9857   -0.0200 H         1 <0>         0.1238
     39 H4          1.2181   -1.7604   -0.0194 H         1 <0>         0.1215
     40 H5         -0.9264   -0.5557    0.0079 H         1 <0>         0.1258
     41 H6          4.4855    0.4570   -1.6732 H         1 <0>         0.1443
     42 H7          7.9210   -4.1292    1.0243 H         1 <0>         0.1474
     43 H8         11.0297   -3.1978   -1.7528 H         1 <0>         0.1395
     44 H9          9.6439   -1.4363   -2.7485 H         1 <0>         0.1320
     45 H10         7.7963   -0.2794   -3.6496 H         1 <0>         0.0978
     46 H11         6.1561    0.3202   -3.3051 H         1 <0>         0.0966
     47 H12         7.0707    1.8132   -1.5493 H         1 <0>         0.0786
     48 H13         8.7108    1.2137   -1.8938 H         1 <0>         0.0796
     49 H14         8.5238    2.0408   -4.2239 H         1 <0>         0.0631
     50 H15         6.8836    2.6404   -3.8794 H         1 <0>         0.0633
     51 H16         8.6538    3.7482   -1.9779 H         1 <0>         0.4000
     52 H17         7.9064    3.7613   -5.5096 H         1 <0>         0.1186
     53 H18         8.2934    5.6804   -7.0009 H         1 <0>         0.1205
     54 H19         9.2538    7.7625   -6.1070 H         1 <0>         0.1184
     55 H20         9.8283    7.9331   -3.7200 H         1 <0>         0.1210
     56 H21         9.4352    6.0237   -2.2178 H         1 <0>         0.1185
     57 H22        10.2282   -5.6129   -0.1739 H         1 <0>         0.3906
     58 H23         3.5977   -3.8372    3.2881 H         1 <0>         0.4317
@<TRIPOS>BOND
     1    1    6 ar
     2    1    2 ar
     3    1   36 1
     4    2    3 ar
     5    2   37 1
     6    3    4 ar
     7    3   38 1
     8    4    5 ar
     9    4    7 1
    10    5    6 ar
    11    5   39 1
    12    6   40 1
    13    7   30 ar
    14    7    8 ar
    15    8    9 ar
    16    8   41 1
    17    9   17 1
    18    9   10 ar
    19   10   11 1
    20   10   29 ar
    21   11   16 ar
    22   11   12 ar
    23   12   13 ar
    24   12   42 1
    25   13   14 ar
    26   13   28 1
    27   14   15 ar
    28   14   43 1
    29   15   16 ar
    30   15   44 1
    31   16   17 1
    32   17   18 1
    33   18   19 1
    34   18   45 1
    35   18   46 1
    36   19   20 1
    37   19   47 1
    38   19   48 1
    39   20   21 1
    40   20   49 1
    41   20   50 1
    42   21   22 1
    43   21   51 1
    44   22   27 ar
    45   22   23 ar
    46   23   24 ar
    47   23   52 1
    48   24   25 ar
    49   24   53 1
    50   25   26 ar
    51   25   54 1
    52   26   27 ar
    53   26   55 1
    54   27   56 1
    55   28   57 1
    56   29   34 1
    57   29   30 ar
    58   30   31 1
    59   31   32 2
    60   31   33 am
    61   33   34 am
    62   33   58 1
    63   34   35 2
@<TRIPOS>MOLECULE
CHEMBL459889
   45    49     0     0     0
SMALL
USER_CHARGES

@<TRIPOS>ATOM
      1 C1         -0.0166    1.3753    0.0096 C.ar      1 <0>        -0.1165
      2 C2          1.1702    2.0869    0.0021 C.ar      1 <0>        -0.1002
      3 C3          2.3823    1.4213   -0.0135 C.ar      1 <0>        -0.1106
      4 C4          2.4147    0.0403   -0.0213 C.ar      1 <0>         0.0005
      5 C5          1.2208   -0.6823   -0.0133 C.ar      1 <0>        -0.0461
      6 C6          0.0021   -0.0041    0.0020 C.ar      1 <0>        -0.0855
      7 C7          1.2476   -2.1633   -0.0220 C.ar      1 <0>         0.0513
      8 C8          0.7443   -2.8623   -1.1176 C.ar      1 <0>        -0.0999
      9 C9          0.7641   -4.2503   -1.1370 C.ar      1 <0>         0.1802
     10 C10         1.2978   -4.9603   -0.0406 C.ar      1 <0>        -0.0334
     11 C11         1.1711   -6.3898   -0.3691 C.ar      1 <0>        -0.1029
     12 C12         1.5141   -7.5614    0.3052 C.ar      1 <0>        -0.0745
     13 C13         1.2616   -8.7878   -0.2800 C.ar      1 <0>         0.0662
     14 C14         0.6683   -8.8531   -1.5363 C.ar      1 <0>        -0.0974
     15 C15         0.3265   -7.7006   -2.2102 C.ar      1 <0>        -0.1208
     16 C16         0.5722   -6.4571   -1.6364 C.ar      1 <0>         0.1495
     17 N1          0.3368   -5.1656   -2.0786 N.pl3     1 <0>        -0.4868
     18 C17        -0.2788   -4.8200   -3.3623 C.3       1 <0>         0.1294
     19 C18         0.8102   -4.6727   -4.4269 C.3       1 <0>        -0.2011
     20 C19         0.1770   -4.3171   -5.7474 C.2       1 <0>         0.4976
     21 O1         -1.0331   -4.1930   -5.8294 O.co2     1 <0>        -0.6962
     22 O2          0.8748   -4.1536   -6.7337 O.co2     1 <0>        -0.6929
     23 O3          1.5943   -9.9330    0.3737 O.3       1 <0>        -0.4944
     24 C20         1.8044   -4.2673    1.0595 C.ar      1 <0>        -0.0847
     25 C21         1.7840   -2.8596    1.0679 C.ar      1 <0>        -0.1617
     26 C22         2.3884   -2.4533    2.3485 C.2       1 <0>         0.5829
     27 O4          2.5449   -1.3094    2.7274 O.2       1 <0>        -0.4562
     28 N2          2.7379   -3.5599    3.0287 N.am      1 <0>        -0.6828
     29 C23         2.4184   -4.6701    2.3393 C.2       1 <0>         0.5818
     30 O5          2.6139   -5.8124    2.7038 O.2       1 <0>        -0.4622
     31 Cl1         3.9368   -0.7943   -0.0415 Cl        1 <0>        -0.0622
     32 H1         -0.9598    1.9012    0.0260 H         1 <0>         0.1318
     33 H2          1.1498    3.1667    0.0081 H         1 <0>         0.1320
     34 H3          3.3052    1.9822   -0.0201 H         1 <0>         0.1345
     35 H4         -0.9252   -0.5577    0.0083 H         1 <0>         0.1354
     36 H5          0.3356   -2.3202   -1.9575 H         1 <0>         0.1479
     37 H6          1.9754   -7.5105    1.2804 H         1 <0>         0.1438
     38 H7          0.4742   -9.8149   -1.9876 H         1 <0>         0.1365
     39 H8         -0.1334   -7.7627   -3.1854 H         1 <0>         0.1359
     40 H9         -0.9710   -5.6085   -3.6574 H         1 <0>         0.0955
     41 H10        -0.8204   -3.8791   -3.2640 H         1 <0>         0.0938
     42 H11         1.5024   -3.8841   -4.1319 H         1 <0>         0.0650
     43 H12         1.3518   -5.6135   -4.5253 H         1 <0>         0.0657
     44 H13         0.8923  -10.2803    0.9408 H         1 <0>         0.3845
     45 H14         3.1568   -3.5579    3.9036 H         1 <0>         0.4275
@<TRIPOS>BOND
     1    1    6 ar
     2    1    2 ar
     3    1   32 1
     4    2    3 ar
     5    2   33 1
     6    3    4 ar
     7    3   34 1
     8    4    5 ar
     9    4   31 1
    10    5    6 ar
    11    5    7 1
    12    6   35 1
    13    7   25 ar
    14    7    8 ar
    15    8    9 ar
    16    8   36 1
    17    9   17 1
    18    9   10 ar
    19   10   11 1
    20   10   24 ar
    21   11   16 ar
    22   11   12 ar
    23   12   13 ar
    24   12   37 1
    25   13   14 ar
    26   13   23 1
    27   14   15 ar
    28   14   38 1
    29   15   16 ar
    30   15   39 1
    31   16   17 1
    32   17   18 1
    33   18   19 1
    34   18   40 1
    35   18   41 1
    36   19   20 1
    37   19   42 1
    38   19   43 1
    39   20   21 2
    40   20   22 1
    41   23   44 1
    42   24   29 1
    43   24   25 ar
    44   25   26 1
    45   26   27 2
    46   26   28 am
    47   28   29 am
    48   28   45 1
    49   29   30 2
@<TRIPOS>MOLECULE
CHEMBL520049
   51    55     0     0     0
SMALL
USER_CHARGES

@<TRIPOS>ATOM
      1 C1         -0.0168    1.3862    0.0097 C.ar      1 <0>        -0.0965
      2 C2          1.1609    2.1025    0.0023 C.ar      1 <0>        -0.1248
      3 C3          2.3825    1.4375   -0.0134 C.ar      1 <0>         0.1409
      4 C4          2.4030    0.0342   -0.0211 C.ar      1 <0>        -0.0952
      5 C5          1.2070   -0.6819   -0.0137 C.ar      1 <0>        -0.0743
      6 C6          0.0021   -0.0041    0.0020 C.ar      1 <0>         0.0776
      7 O1         -1.1671   -0.6986    0.0094 O.3       1 <0>        -0.4931
      8 C7          3.8205   -0.3634   -0.0373 C.ar      1 <0>        -0.0349
      9 C8          4.5699    0.8308   -0.0384 C.ar      1 <0>         0.1738
     10 N1          3.6904    1.8941   -0.0239 N.pl3     1 <0>        -0.4968
     11 C9          4.0840    3.3052   -0.0207 C.3       1 <0>         0.1123
     12 C10         4.2357    3.7891    1.4228 C.3       1 <0>        -0.1263
     13 C11         4.6467    5.2628    1.4262 C.3       1 <0>        -0.1372
     14 C12         4.7962    5.7394    2.8480 C.2       1 <0>         0.5167
     15 O2          4.5939    4.9755    3.7680 O.2       1 <0>        -0.5321
     16 N2          5.1546    7.0145    3.0972 N.am      1 <0>        -0.6191
     17 C13         5.3993    7.9613    1.9975 C.3       1 <0>         0.0705
     18 C14         4.5919    9.2359    2.2682 C.3       1 <0>         0.0453
     19 O3          4.8820    9.7057    3.5869 O.3       1 <0>        -0.3772
     20 C15         4.5091    8.7983    4.6268 C.3       1 <0>         0.0473
     21 C16         5.3068    7.5028    4.4769 C.3       1 <0>         0.0750
     22 C17         5.9601    0.7720   -0.0525 C.ar      1 <0>        -0.1218
     23 C18         6.6119   -0.4454   -0.0655 C.ar      1 <0>        -0.0095
     24 C19         5.8862   -1.6303   -0.0646 C.ar      1 <0>        -0.1725
     25 C20         4.4779   -1.5935   -0.0510 C.ar      1 <0>        -0.0820
     26 C21         4.0364   -3.0012   -0.0545 C.2       1 <0>         0.5780
     27 O4          2.8830   -3.3824   -0.0452 O.2       1 <0>        -0.4567
     28 N3          5.1243   -3.7922   -0.0704 N.am      1 <0>        -0.6807
     29 C22         6.2528   -3.0602   -0.0757 C.2       1 <0>         0.5830
     30 O5          7.3844   -3.5020   -0.0893 O.2       1 <0>        -0.4633
     31 H1         -0.9617    1.9091    0.0260 H         1 <0>         0.1391
     32 H2          1.1351    3.1822    0.0083 H         1 <0>         0.1313
     33 H3          1.2216   -1.7618   -0.0199 H         1 <0>         0.1468
     34 H4         -1.5137   -0.8947   -0.8718 H         1 <0>         0.3900
     35 H5          5.0335    3.4188   -0.5437 H         1 <0>         0.0945
     36 H6          3.3191    3.8969   -0.5237 H         1 <0>         0.0946
     37 H7          3.2861    3.6755    1.9458 H         1 <0>         0.0808
     38 H8          5.0006    3.1974    1.9258 H         1 <0>         0.0808
     39 H9          5.5963    5.3764    0.9032 H         1 <0>         0.0996
     40 H10         3.8818    5.8545    0.9232 H         1 <0>         0.0983
     41 H11         6.4613    8.2025    1.9503 H         1 <0>         0.0821
     42 H12         5.0807    7.5183    1.0540 H         1 <0>         0.0963
     43 H13         4.8644   10.0008    1.5411 H         1 <0>         0.1097
     44 H14         3.5273    9.0169    2.1858 H         1 <0>         0.0572
     45 H15         4.7220    9.2484    5.5964 H         1 <0>         0.1101
     46 H16         3.4442    8.5777    4.5529 H         1 <0>         0.0567
     47 H17         4.9269    6.7563    5.1745 H         1 <0>         0.1030
     48 H18         6.3593    7.6970    4.6836 H         1 <0>         0.0779
     49 H19         6.5345    1.6866   -0.0537 H         1 <0>         0.1430
     50 H20         7.6913   -0.4767   -0.0768 H         1 <0>         0.1505
     51 H21         5.0985   -4.7618   -0.0756 H         1 <0>         0.4313
@<TRIPOS>BOND
     1    1    6 ar
     2    1    2 ar
     3    1   31 1
     4    2    3 ar
     5    2   32 1
     6    3   10 1
     7    3    4 ar
     8    4    5 ar
     9    4    8 1
    10    5    6 ar
    11    5   33 1
    12    6    7 1
    13    7   34 1
    14    8   25 ar
    15    8    9 ar
    16    9   10 1
    17    9   22 ar
    18   10   11 1
    19   11   12 1
    20   11   35 1
    21   11   36 1
    22   12   13 1
    23   12   37 1
    24   12   38 1
    25   13   14 1
    26   13   39 1
    27   13   40 1
    28   14   15 2
    29   14   16 am
    30   16   21 1
    31   16   17 1
    32   17   18 1
    33   17   41 1
    34   17   42 1
    35   18   19 1
    36   18   43 1
    37   18   44 1
    38   19   20 1
    39   20   21 1
    40   20   45 1
    41   20   46 1
    42   21   47 1
    43   21   48 1
    44   22   23 ar
    45   22   49 1
    46   23   24 ar
    47   23   50 1
    48   24   29 1
    49   24   25 ar
    50   25   26 1
    51   26   27 2
    52   26   28 am
    53   28   29 am
    54   28   51 1
    55   29   30 2
@<TRIPOS>MOLECULE
CHEMBL485638
   55    60     0     0     0
SMALL
USER_CHARGES

@<TRIPOS>ATOM
      1 C1         -0.0166    1.3753    0.0096 C.ar      1 <0>        -0.1160
      2 C2          1.1702    2.0869    0.0021 C.ar      1 <0>        -0.0956
      3 C3          2.3823    1.4213   -0.0135 C.ar      1 <0>        -0.1088
      4 C4          2.4148    0.0403   -0.0213 C.ar      1 <0>        -0.0005
      5 C5          1.2208   -0.6824   -0.0133 C.ar      1 <0>        -0.0546
      6 C6          0.0021   -0.0041    0.0020 C.ar      1 <0>        -0.0862
      7 C7          1.2477   -2.1632   -0.0220 C.ar      1 <0>         0.0535
      8 C8          0.7442   -2.8624   -1.1180 C.ar      1 <0>        -0.1011
      9 C9          0.7642   -4.2497   -1.1380 C.ar      1 <0>         0.1670
     10 C10         1.2980   -4.9604   -0.0415 C.ar      1 <0>        -0.0180
     11 C11         1.1726   -6.3892   -0.3703 C.ar      1 <0>        -0.1323
     12 C12         1.5169   -7.5611    0.3061 C.ar      1 <0>        -0.0342
     13 C13         1.2670   -8.7871   -0.2757 C.ar      1 <0>         0.0545
     14 C14         0.6720   -8.8554   -1.5365 C.ar      1 <0>         0.1581
     15 C15         0.3287   -7.6993   -2.2126 C.ar      1 <0>        -0.2291
     16 C16         0.5743   -6.4567   -1.6382 C.ar      1 <0>         0.1834
     17 N1          0.3379   -5.1653   -2.0804 N.pl3     1 <0>        -0.6066
     18 H1         -0.0695   -4.9366   -2.9305 H         1 <0>         0.4256
     19 O1          0.4287  -10.0665   -2.1035 O.3       1 <0>        -0.2941
     20 C17        -0.1824  -10.0671   -3.3953 C.3       1 <0>         0.0583
     21 C18        -0.3759  -11.5096   -3.8673 C.3       1 <0>        -0.1370
     22 C19        -1.0301  -11.5102   -5.2503 C.3       1 <0>         0.1109
     23 N2         -1.2154  -12.8914   -5.7023 N.pl3     1 <0>        -0.4504
     24 C20        -0.3120  -13.6216   -6.4161 C.2       1 <0>        -0.0166
     25 C21        -0.8404  -14.8414   -6.6423 C.2       1 <0>        -0.1996
     26 C22        -2.1168  -14.8652   -6.0463 C.2       1 <0>        -0.1995
     27 C23        -2.3174  -13.6610   -5.4736 C.2       1 <0>        -0.0173
     28 O2          1.6016   -9.9312    0.3805 O.3       1 <0>        -0.4789
     29 C24         1.8041   -4.2676    1.0594 C.ar      1 <0>        -0.0868
     30 C25         1.7839   -2.8593    1.0677 C.ar      1 <0>        -0.1459
     31 C26         2.3884   -2.4533    2.3483 C.2       1 <0>         0.5788
     32 O3          2.5449   -1.3095    2.7274 O.2       1 <0>        -0.4471
     33 N3          2.7377   -3.5602    3.0281 N.am      1 <0>        -0.6804
     34 C27         2.4175   -4.6703    2.3387 C.2       1 <0>         0.5797
     35 O4          2.6140   -5.8127    2.7027 O.2       1 <0>        -0.4569
     36 Cl1         3.9369   -0.7942   -0.0415 Cl        1 <0>        -0.0609
     37 H2         -0.9598    1.9012    0.0260 H         1 <0>         0.1335
     38 H3          1.1498    3.1667    0.0081 H         1 <0>         0.1348
     39 H4          3.3052    1.9822   -0.0201 H         1 <0>         0.1370
     40 H5         -0.9252   -0.5577    0.0083 H         1 <0>         0.1347
     41 H6          0.3351   -2.3202   -1.9577 H         1 <0>         0.1471
     42 H7          1.9776   -7.5082    1.2814 H         1 <0>         0.1565
     43 H8         -0.1306   -7.7611   -3.1881 H         1 <0>         0.1388
     44 H9         -1.1509   -9.5701   -3.3393 H         1 <0>         0.0685
     45 H10         0.4579   -9.5369   -4.1003 H         1 <0>         0.0689
     46 H11         0.5926  -12.0065   -3.9233 H         1 <0>         0.0849
     47 H12        -1.0161  -12.0398   -3.1622 H         1 <0>         0.0842
     48 H13        -1.9986  -11.0132   -5.1943 H         1 <0>         0.0924
     49 H14        -0.3899  -10.9800   -5.9554 H         1 <0>         0.0926
     50 H15         0.6591  -13.2814   -6.7443 H         1 <0>         0.1602
     51 H16        -0.3713  -15.6513   -7.1813 H         1 <0>         0.1355
     52 H17        -2.8060  -15.6967   -6.0445 H         1 <0>         0.1354
     53 H18        -3.1996  -13.3577   -4.9295 H         1 <0>         0.1600
     54 H19         0.9000  -10.2786    0.9481 H         1 <0>         0.3876
     55 H20         3.1569   -3.5585    3.9029 H         1 <0>         0.4317
@<TRIPOS>BOND
     1    1    6 ar
     2    1    2 ar
     3    1   37 1
     4    2    3 ar
     5    2   38 1
     6    3    4 ar
     7    3   39 1
     8    4    5 ar
     9    4   36 1
    10    5    6 ar
    11    5    7 1
    12    6   40 1
    13    7   30 ar
    14    7    8 ar
    15    8    9 ar
    16    8   41 1
    17    9   17 1
    18    9   10 ar
    19   10   11 1
    20   10   29 ar
    21   11   16 ar
    22   11   12 ar
    23   12   13 ar
    24   12   42 1
    25   13   14 ar
    26   13   28 1
    27   14   15 ar
    28   14   19 1
    29   15   16 ar
    30   15   43 1
    31   16   17 1
    32   17   18 1
    33   19   20 1
    34   20   21 1
    35   20   44 1
    36   20   45 1
    37   21   22 1
    38   21   46 1
    39   21   47 1
    40   22   23 1
    41   22   48 1
    42   22   49 1
    43   23   27 1
    44   23   24 1
    45   24   25 2
    46   24   50 1
    47   25   26 1
    48   25   51 1
    49   26   27 2
    50   26   52 1
    51   27   53 1
    52   28   54 1
    53   29   34 1
    54   29   30 ar
    55   30   31 1
    56   31   32 2
    57   31   33 am
    58   33   34 am
    59   33   55 1
    60   34   35 2
@<TRIPOS>MOLECULE
CHEMBL209486
   34    38     0     0     0
SMALL
USER_CHARGES

@<TRIPOS>ATOM
      1 C1         -0.0164    1.3552    0.0095 C.2       1 <0>        -0.1651
      2 C2          1.1754    2.0421    0.0018 C.2       1 <0>        -0.1265
      3 C3          2.3472    1.3285   -0.0132 C.2       1 <0>        -0.1452
      4 S1          1.7524   -0.3549   -0.0166 S.3       1 <0>         0.1144
      5 C4          0.0021   -0.0041    0.0020 C.2       1 <0>        -0.1737
      6 C5          3.7354    1.8230   -0.0242 C.ar      1 <0>         0.1053
      7 C6          4.1225    2.7989   -0.9462 C.ar      1 <0>        -0.1033
      8 C7          5.4261    3.2708   -0.9650 C.ar      1 <0>         0.1767
      9 C8          6.3718    2.7637   -0.0474 C.ar      1 <0>        -0.0306
     10 C9          7.6383    3.4601   -0.3276 C.ar      1 <0>        -0.0967
     11 C10         8.9130    3.3920    0.2341 C.ar      1 <0>        -0.0745
     12 C11         9.9237    4.1947   -0.2607 C.ar      1 <0>         0.0789
     13 C12         9.6702    5.0669   -1.3139 C.ar      1 <0>        -0.0951
     14 C13         8.4136    5.1410   -1.8750 C.ar      1 <0>        -0.1251
     15 C14         7.3841    4.3404   -1.3905 C.ar      1 <0>         0.1400
     16 N1          6.0543    4.2120   -1.7576 N.pl3     1 <0>        -0.6070
     17 H1          5.6254    4.7116   -2.4700 H         1 <0>         0.4265
     18 O1         11.1682    4.1317    0.2838 O.3       1 <0>        -0.4929
     19 C15         5.9951    1.7896    0.8775 C.ar      1 <0>        -0.0769
     20 C16         4.6677    1.3180    0.8949 C.ar      1 <0>        -0.1626
     21 C17         4.6060    0.3212    1.9747 C.2       1 <0>         0.5771
     22 O2          3.6213   -0.3141    2.2976 O.2       1 <0>        -0.4459
     23 N2          5.8206    0.2296    2.5455 N.am      1 <0>        -0.6792
     24 C18         6.6971    1.0578    1.9489 C.2       1 <0>         0.5793
     25 O3          7.8666    1.1904    2.2505 O.2       1 <0>        -0.4548
     26 H2         -0.9550    1.8891    0.0258 H         1 <0>         0.1366
     27 H3          1.1884    3.1220    0.0071 H         1 <0>         0.1357
     28 H4         -0.8286   -0.6943    0.0065 H         1 <0>         0.1881
     29 H5          3.4011    3.1882   -1.6494 H         1 <0>         0.1494
     30 H6          9.1095    2.7151    1.0524 H         1 <0>         0.1481
     31 H7         10.4646    5.6917   -1.6949 H         1 <0>         0.1406
     32 H8          8.2277    5.8218   -2.6925 H         1 <0>         0.1351
     33 H9         11.7483    3.4812   -0.1350 H         1 <0>         0.3910
     34 H10         6.0377   -0.3612    3.2836 H         1 <0>         0.4324
@<TRIPOS>BOND
     1    1    5 2
     2    1    2 1
     3    1   26 1
     4    2    3 2
     5    2   27 1
     6    3    4 1
     7    3    6 1
     8    4    5 1
     9    5   28 1
    10    6   20 ar
    11    6    7 ar
    12    7    8 ar
    13    7   29 1
    14    8   16 1
    15    8    9 ar
    16    9   10 1
    17    9   19 ar
    18   10   15 ar
    19   10   11 ar
    20   11   12 ar
    21   11   30 1
    22   12   13 ar
    23   12   18 1
    24   13   14 ar
    25   13   31 1
    26   14   15 ar
    27   14   32 1
    28   15   16 1
    29   16   17 1
    30   18   33 1
    31   19   24 1
    32   19   20 ar
    33   20   21 1
    34   21   22 2
    35   21   23 am
    36   23   24 am
    37   23   34 1
    38   24   25 2
@<TRIPOS>MOLECULE
CHEMBL377839
   34    38     0     0     0
SMALL
USER_CHARGES

@<TRIPOS>ATOM
      1 C1         -0.0168    1.3862    0.0097 C.ar      1 <0>        -0.0965
      2 C2          1.1610    2.1027    0.0023 C.ar      1 <0>        -0.1255
      3 C3          2.3825    1.4379   -0.0129 C.ar      1 <0>         0.1386
      4 C4          2.4031    0.0345   -0.0206 C.ar      1 <0>        -0.0956
      5 C5          1.2071   -0.6818   -0.0130 C.ar      1 <0>        -0.0756
      6 C6          0.0021   -0.0041    0.0020 C.ar      1 <0>         0.0784
      7 O1         -1.1671   -0.6986    0.0094 O.3       1 <0>        -0.4932
      8 C7          3.8204   -0.3641   -0.0363 C.ar      1 <0>        -0.0366
      9 C8          4.5712    0.8314   -0.0370 C.ar      1 <0>         0.1773
     10 N1          3.6905    1.8954   -0.0230 N.pl3     1 <0>        -0.6088
     11 H1          3.9506    2.8298   -0.0204 H         1 <0>         0.4255
     12 C9          5.9573    0.7769   -0.0510 C.ar      1 <0>        -0.1163
     13 C10         6.6173   -0.4518   -0.0642 C.ar      1 <0>         0.0900
     14 C11         5.8804   -1.6433   -0.0640 C.ar      1 <0>        -0.1675
     15 C12         4.4722   -1.5972   -0.0494 C.ar      1 <0>        -0.0790
     16 C13         4.0227   -3.0022   -0.0526 C.2       1 <0>         0.5786
     17 O2          2.8672   -3.3776   -0.0433 O.2       1 <0>        -0.4562
     18 N2          5.1072   -3.7980   -0.0676 N.am      1 <0>        -0.6806
     19 C14         6.2386   -3.0706   -0.0756 C.2       1 <0>         0.5812
     20 O3          7.3687   -3.5177   -0.0891 O.2       1 <0>        -0.4558
     21 C15         8.0962   -0.4968   -0.0791 C.2       1 <0>        -0.1279
     22 C16         8.8279    0.2598   -0.9961 C.2       1 <0>        -0.1324
     23 C17        10.1734    0.1485   -0.9275 C.2       1 <0>        -0.2122
     24 S1         10.3930   -1.0064    0.4112 S.3       1 <0>         0.1834
     25 C18         8.7826   -1.2743    0.8064 C.2       1 <0>        -0.1929
     26 H2         -0.9617    1.9090    0.0260 H         1 <0>         0.1401
     27 H3          1.1351    3.1824    0.0079 H         1 <0>         0.1345
     28 H4          1.2218   -1.7617   -0.0193 H         1 <0>         0.1474
     29 H5         -1.5136   -0.8948   -0.8718 H         1 <0>         0.3906
     30 H6          6.5297    1.6928   -0.0519 H         1 <0>         0.1457
     31 H7          5.0773   -4.7675   -0.0723 H         1 <0>         0.4313
     32 H8          8.3454    0.8988   -1.7209 H         1 <0>         0.1404
     33 H9         10.9247    0.6358   -1.5314 H         1 <0>         0.1872
     34 H10         8.3839   -1.9141    1.5798 H         1 <0>         0.1822
@<TRIPOS>BOND
     1    1    6 ar
     2    1    2 ar
     3    1   26 1
     4    2    3 ar
     5    2   27 1
     6    3   10 1
     7    3    4 ar
     8    4    5 ar
     9    4    8 1
    10    5    6 ar
    11    5   28 1
    12    6    7 1
    13    7   29 1
    14    8   15 ar
    15    8    9 ar
    16    9   10 1
    17    9   12 ar
    18   10   11 1
    19   12   13 ar
    20   12   30 1
    21   13   14 ar
    22   13   21 1
    23   14   19 1
    24   14   15 ar
    25   15   16 1
    26   16   17 2
    27   16   18 am
    28   18   19 am
    29   18   31 1
    30   19   20 2
    31   21   25 2
    32   21   22 1
    33   22   23 2
    34   22   32 1
    35   23   24 1
    36   23   33 1
    37   24   25 1
    38   25   34 1
@<TRIPOS>MOLECULE
CHEMBL488572
   48    52     0     0     0
SMALL
USER_CHARGES

@<TRIPOS>ATOM
      1 C1         -0.0168    1.3862    0.0097 C.ar      1 <0>        -0.0957
      2 C2          1.1609    2.1025    0.0023 C.ar      1 <0>        -0.1251
      3 C3          2.3825    1.4375   -0.0134 C.ar      1 <0>         0.1389
      4 C4          2.4030    0.0342   -0.0211 C.ar      1 <0>        -0.0942
      5 C5          1.2070   -0.6819   -0.0137 C.ar      1 <0>        -0.0745
      6 C6          0.0021   -0.0041    0.0020 C.ar      1 <0>         0.0789
      7 O1         -1.1671   -0.6986    0.0094 O.3       1 <0>        -0.4933
      8 C7          3.8205   -0.3634   -0.0373 C.ar      1 <0>        -0.0339
      9 C8          4.5699    0.8308   -0.0384 C.ar      1 <0>         0.1720
     10 N1          3.6904    1.8941   -0.0239 N.pl3     1 <0>        -0.4987
     11 C9          4.0840    3.3052   -0.0207 C.3       1 <0>         0.1292
     12 C10         4.2357    3.7891    1.4228 C.3       1 <0>        -0.1627
     13 C11         4.6405    5.2407    1.4261 C.2       1 <0>         0.5240
     14 O2          4.7927    5.8302    0.3772 O.2       1 <0>        -0.5346
     15 N2          4.8335    5.8838    2.5947 N.am      1 <0>        -0.6152
     16 C12         4.6609    5.1880    3.8798 C.3       1 <0>         0.0689
     17 C13         5.9069    5.4390    4.7367 C.3       1 <0>         0.0461
     18 O3          6.1560    6.8451    4.8046 O.3       1 <0>        -0.3764
     19 C14         6.4421    7.4505    3.5414 C.3       1 <0>         0.0470
     20 C15         5.2289    7.3009    2.6232 C.3       1 <0>         0.0752
     21 C16         5.9601    0.7720   -0.0525 C.ar      1 <0>        -0.1227
     22 C17         6.6119   -0.4454   -0.0655 C.ar      1 <0>        -0.0090
     23 C18         5.8862   -1.6303   -0.0646 C.ar      1 <0>        -0.1714
     24 C19         4.4779   -1.5935   -0.0510 C.ar      1 <0>        -0.0818
     25 C20         4.0364   -3.0012   -0.0545 C.2       1 <0>         0.5779
     26 O4          2.8830   -3.3824   -0.0452 O.2       1 <0>        -0.4563
     27 N3          5.1243   -3.7922   -0.0704 N.am      1 <0>        -0.6807
     28 C21         6.2528   -3.0602   -0.0757 C.2       1 <0>         0.5827
     29 O5          7.3844   -3.5020   -0.0893 O.2       1 <0>        -0.4626
     30 H1         -0.9617    1.9091    0.0260 H         1 <0>         0.1397
     31 H2          1.1351    3.1822    0.0083 H         1 <0>         0.1319
     32 H3          1.2216   -1.7618   -0.0199 H         1 <0>         0.1471
     33 H4         -1.5137   -0.8947   -0.8718 H         1 <0>         0.3909
     34 H5          5.0335    3.4188   -0.5437 H         1 <0>         0.1025
     35 H6          3.3191    3.8969   -0.5237 H         1 <0>         0.1032
     36 H7          3.2861    3.6755    1.9458 H         1 <0>         0.1043
     37 H8          5.0006    3.1974    1.9258 H         1 <0>         0.1031
     38 H9          3.7795    5.5749    4.3913 H         1 <0>         0.0838
     39 H10         4.5447    4.1183    3.7053 H         1 <0>         0.0958
     40 H11         5.7423    5.0496    5.7414 H         1 <0>         0.1105
     41 H12         6.7646    4.9386    4.2874 H         1 <0>         0.0580
     42 H13         6.6626    8.5081    3.6861 H         1 <0>         0.1108
     43 H14         7.3018    6.9573    3.0877 H         1 <0>         0.0573
     44 H15         5.4888    7.6298    1.6170 H         1 <0>         0.1045
     45 H16         4.4058    7.9042    3.0060 H         1 <0>         0.0793
     46 H17         6.5345    1.6866   -0.0537 H         1 <0>         0.1431
     47 H18         7.6913   -0.4767   -0.0768 H         1 <0>         0.1508
     48 H19         5.0985   -4.7618   -0.0756 H         1 <0>         0.4316
@<TRIPOS>BOND
     1    1    6 ar
     2    1    2 ar
     3    1   30 1
     4    2    3 ar
     5    2   31 1
     6    3   10 1
     7    3    4 ar
     8    4    5 ar
     9    4    8 1
    10    5    6 ar
    11    5   32 1
    12    6    7 1
    13    7   33 1
    14    8   24 ar
    15    8    9 ar
    16    9   10 1
    17    9   21 ar
    18   10   11 1
    19   11   12 1
    20   11   34 1
    21   11   35 1
    22   12   13 1
    23   12   36 1
    24   12   37 1
    25   13   14 2
    26   13   15 am
    27   15   20 1
    28   15   16 1
    29   16   17 1
    30   16   38 1
    31   16   39 1
    32   17   18 1
    33   17   40 1
    34   17   41 1
    35   18   19 1
    36   19   20 1
    37   19   42 1
    38   19   43 1
    39   20   44 1
    40   20   45 1
    41   21   22 ar
    42   21   46 1
    43   22   23 ar
    44   22   47 1
    45   23   28 1
    46   23   24 ar
    47   24   25 1
    48   25   26 2
    49   25   27 am
    50   27   28 am
    51   27   48 1
    52   28   29 2
@<TRIPOS>MOLECULE
CHEMBL488571
   42    46     0     0     0
SMALL
USER_CHARGES

@<TRIPOS>ATOM
      1 C1         -0.0168    1.3862    0.0097 C.ar      1 <0>        -0.0951
      2 C2          1.1609    2.1025    0.0023 C.ar      1 <0>        -0.1257
      3 C3          2.3825    1.4375   -0.0134 C.ar      1 <0>         0.1373
      4 C4          2.4030    0.0342   -0.0211 C.ar      1 <0>        -0.0923
      5 C5          1.2070   -0.6819   -0.0137 C.ar      1 <0>        -0.0742
      6 C6          0.0021   -0.0041    0.0020 C.ar      1 <0>         0.0809
      7 O1         -1.1671   -0.6986    0.0094 O.3       1 <0>        -0.4930
      8 C7          3.8205   -0.3634   -0.0373 C.ar      1 <0>        -0.0323
      9 C8          4.5699    0.8308   -0.0384 C.ar      1 <0>         0.1705
     10 N1          3.6904    1.8941   -0.0239 N.pl3     1 <0>        -0.4999
     11 C9          4.0840    3.3052   -0.0207 C.3       1 <0>         0.1277
     12 C10         4.2357    3.7891    1.4228 C.3       1 <0>        -0.1685
     13 C11         4.6405    5.2407    1.4261 C.2       1 <0>         0.5409
     14 O2          4.7921    5.8280    0.3812 O.2       1 <0>        -0.4633
     15 N2          4.8335    5.8838    2.5947 N.am      1 <0>        -0.4717
     16 C12         5.1969    7.2010    2.7548 C.2       1 <0>        -0.0301
     17 C13         5.2768    7.4239    4.0782 C.2       1 <0>        -0.0125
     18 N3          4.9731    6.2829    4.7179 N.2       1 <0>        -0.4658
     19 C14         4.7000    5.3547    3.8450 C.2       1 <0>         0.2077
     20 C15         5.9601    0.7720   -0.0525 C.ar      1 <0>        -0.1227
     21 C16         6.6119   -0.4454   -0.0655 C.ar      1 <0>        -0.0083
     22 C17         5.8862   -1.6303   -0.0646 C.ar      1 <0>        -0.1691
     23 C18         4.4779   -1.5935   -0.0510 C.ar      1 <0>        -0.0814
     24 C19         4.0364   -3.0012   -0.0545 C.2       1 <0>         0.5778
     25 O3          2.8830   -3.3824   -0.0452 O.2       1 <0>        -0.4557
     26 N4          5.1243   -3.7922   -0.0704 N.am      1 <0>        -0.6804
     27 C20         6.2528   -3.0602   -0.0757 C.2       1 <0>         0.5823
     28 O4          7.3844   -3.5020   -0.0893 O.2       1 <0>        -0.4613
     29 H1         -0.9617    1.9091    0.0260 H         1 <0>         0.1403
     30 H2          1.1351    3.1822    0.0083 H         1 <0>         0.1317
     31 H3          1.2216   -1.7618   -0.0199 H         1 <0>         0.1478
     32 H4         -1.5137   -0.8947   -0.8718 H         1 <0>         0.3915
     33 H5          5.0335    3.4188   -0.5437 H         1 <0>         0.1055
     34 H6          3.3191    3.8969   -0.5237 H         1 <0>         0.1059
     35 H7          3.2861    3.6755    1.9458 H         1 <0>         0.1194
     36 H8          5.0006    3.1974    1.9258 H         1 <0>         0.1190
     37 H9          5.3826    7.9179    1.9687 H         1 <0>         0.1874
     38 H10         5.5403    8.3606    4.5467 H         1 <0>         0.1832
     39 H11         4.4179    4.3374    4.0730 H         1 <0>         0.2198
     40 H12         6.5345    1.6866   -0.0537 H         1 <0>         0.1432
     41 H13         7.6913   -0.4767   -0.0768 H         1 <0>         0.1516
     42 H14         5.0985   -4.7618   -0.0756 H         1 <0>         0.4320
@<TRIPOS>BOND
     1    1    6 ar
     2    1    2 ar
     3    1   29 1
     4    2    3 ar
     5    2   30 1
     6    3   10 1
     7    3    4 ar
     8    4    5 ar
     9    4    8 1
    10    5    6 ar
    11    5   31 1
    12    6    7 1
    13    7   32 1
    14    8   23 ar
    15    8    9 ar
    16    9   10 1
    17    9   20 ar
    18   10   11 1
    19   11   12 1
    20   11   33 1
    21   11   34 1
    22   12   13 1
    23   12   35 1
    24   12   36 1
    25   13   14 2
    26   13   15 am
    27   15   19 1
    28   15   16 1
    29   16   17 2
    30   16   37 1
    31   17   18 1
    32   17   38 1
    33   18   19 2
    34   19   39 1
    35   20   21 ar
    36   20   40 1
    37   21   22 ar
    38   21   41 1
    39   22   27 1
    40   22   23 ar
    41   23   24 1
    42   24   25 2
    43   24   26 am
    44   26   27 am
    45   26   42 1
    46   27   28 2
@<TRIPOS>MOLECULE
CHEMBL486101
   58    63     0     0     0
SMALL
USER_CHARGES

@<TRIPOS>ATOM
      1 C1         -0.0167    1.3790    0.0096 C.ar      1 <0>        -0.0832
      2 C2          1.1680    2.0931    0.0021 C.ar      1 <0>        -0.1037
      3 C3          2.3785    1.4284   -0.0135 C.ar      1 <0>        -0.0033
      4 C4          2.4047    0.0329   -0.0212 C.ar      1 <0>        -0.0420
      5 C5          1.2056   -0.6814   -0.0131 C.ar      1 <0>        -0.0034
      6 C6          0.0021   -0.0041    0.0020 C.ar      1 <0>        -0.1041
      7 Cl1         1.2269   -2.4173   -0.0233 Cl        1 <0>        -0.0488
      8 C7          3.6990   -0.6866   -0.0385 C.ar      1 <0>         0.0560
      9 C8          4.3172   -1.0365    1.1608 C.ar      1 <0>        -0.0980
     10 C9          5.5303   -1.7113    1.1570 C.ar      1 <0>         0.1759
     11 C10         6.1436   -2.0466   -0.0687 C.ar      1 <0>        -0.0250
     12 C11         7.3954   -2.7439    0.2692 C.ar      1 <0>        -0.0950
     13 C12         8.4152   -3.3067   -0.4977 C.ar      1 <0>        -0.0729
     14 C13         9.4915   -3.9072    0.1280 C.ar      1 <0>         0.0784
     15 C14         9.5569   -3.9500    1.5167 C.ar      1 <0>        -0.0942
     16 C15         8.5535   -3.3970    2.2825 C.ar      1 <0>        -0.1256
     17 C16         7.4627   -2.7879    1.6702 C.ar      1 <0>         0.1424
     18 N1          6.3366   -2.1645    2.1825 N.pl3     1 <0>        -0.4974
     19 C17         6.0430   -2.0082    3.6092 C.3       1 <0>         0.1288
     20 C18         5.2400   -3.2147    4.0998 C.3       1 <0>        -0.1636
     21 C19         4.9379   -3.0539    5.5674 C.2       1 <0>         0.5244
     22 O1          5.3266   -2.0712    6.1624 O.2       1 <0>        -0.5341
     23 N2          4.2358   -4.0022    6.2187 N.am      1 <0>        -0.6149
     24 C20         3.7591   -5.2060    5.5195 C.3       1 <0>         0.0690
     25 C21         4.1768   -6.4356    6.3341 C.3       1 <0>         0.0461
     26 O2          3.7434   -6.2736    7.6868 O.3       1 <0>        -0.3763
     27 C22         4.3335   -5.1596    8.3610 C.3       1 <0>         0.0470
     28 C23         3.9286   -3.8673    7.6515 C.3       1 <0>         0.0755
     29 O3         10.4881   -4.4577   -0.6157 O.3       1 <0>        -0.4931
     30 C24         5.5309   -1.6996   -1.2735 C.ar      1 <0>        -0.0794
     31 C25         4.2979   -1.0200   -1.2595 C.ar      1 <0>        -0.1485
     32 C26         3.9316   -0.8164   -2.6717 C.2       1 <0>         0.5802
     33 O4          2.9288   -0.2579   -3.0706 O.2       1 <0>        -0.4512
     34 N3          4.8926   -1.3513   -3.4461 N.am      1 <0>        -0.6799
     35 C27         5.8745   -1.8840   -2.6965 C.2       1 <0>         0.5799
     36 O5          6.8706   -2.4357   -3.1201 O.2       1 <0>        -0.4547
     37 Cl2         3.8641    2.3266   -0.0240 Cl        1 <0>        -0.0470
     38 H1         -0.9605    1.9037    0.0260 H         1 <0>         0.1462
     39 H2          1.1462    3.1729    0.0082 H         1 <0>         0.1450
     40 H3         -0.9265   -0.5555    0.0083 H         1 <0>         0.1447
     41 H4          3.8492   -0.7804    2.0998 H         1 <0>         0.1438
     42 H5          8.3641   -3.2737   -1.5760 H         1 <0>         0.1479
     43 H6         10.4009   -4.4209    1.9987 H         1 <0>         0.1396
     44 H7          8.6140   -3.4364    3.3601 H         1 <0>         0.1320
     45 H8          6.9769   -1.9421    4.1673 H         1 <0>         0.1042
     46 H9          5.4626   -1.0985    3.7632 H         1 <0>         0.1024
     47 H10         4.3060   -3.2807    3.5417 H         1 <0>         0.1039
     48 H11         5.8204   -4.1243    3.9458 H         1 <0>         0.1041
     49 H12         2.6729   -5.1745    5.4332 H         1 <0>         0.0838
     50 H13         4.2055   -5.2547    4.5263 H         1 <0>         0.0957
     51 H14         3.7168   -7.3276    5.9088 H         1 <0>         0.1104
     52 H15         5.2618   -6.5374    6.3092 H         1 <0>         0.0579
     53 H16         3.9862   -5.1335    9.3939 H         1 <0>         0.1106
     54 H17         5.4190   -5.2567    8.3434 H         1 <0>         0.0570
     55 H18         4.4872   -3.0299    8.0695 H         1 <0>         0.1044
     56 H19         2.8598   -3.6987    7.7835 H         1 <0>         0.0793
     57 H20        11.2054   -3.8447   -0.8274 H         1 <0>         0.3908
     58 H21         4.8830   -1.3462   -4.4161 H         1 <0>         0.4322
@<TRIPOS>BOND
     1    1    6 ar
     2    1    2 ar
     3    1   38 1
     4    2    3 ar
     5    2   39 1
     6    3    4 ar
     7    3   37 1
     8    4    5 ar
     9    4    8 1
    10    5    6 ar
    11    5    7 1
    12    6   40 1
    13    8   31 ar
    14    8    9 ar
    15    9   10 ar
    16    9   41 1
    17   10   18 1
    18   10   11 ar
    19   11   12 1
    20   11   30 ar
    21   12   17 ar
    22   12   13 ar
    23   13   14 ar
    24   13   42 1
    25   14   15 ar
    26   14   29 1
    27   15   16 ar
    28   15   43 1
    29   16   17 ar
    30   16   44 1
    31   17   18 1
    32   18   19 1
    33   19   20 1
    34   19   45 1
    35   19   46 1
    36   20   21 1
    37   20   47 1
    38   20   48 1
    39   21   22 2
    40   21   23 am
    41   23   28 1
    42   23   24 1
    43   24   25 1
    44   24   49 1
    45   24   50 1
    46   25   26 1
    47   25   51 1
    48   25   52 1
    49   26   27 1
    50   27   28 1
    51   27   53 1
    52   27   54 1
    53   28   55 1
    54   28   56 1
    55   29   57 1
    56   30   35 1
    57   30   31 ar
    58   31   32 1
    59   32   33 2
    60   32   34 am
    61   34   35 am
    62   34   58 1
    63   35   36 2
@<TRIPOS>MOLECULE
CHEMBL486100
   58    63     0     0     0
SMALL
USER_CHARGES

@<TRIPOS>ATOM
      1 C1         -0.0166    1.3753    0.0096 C.ar      1 <0>        -0.1155
      2 C2          1.1702    2.0869    0.0021 C.ar      1 <0>        -0.0955
      3 C3          2.3823    1.4213   -0.0135 C.ar      1 <0>        -0.1090
      4 C4          2.4147    0.0403   -0.0213 C.ar      1 <0>        -0.0002
      5 C5          1.2208   -0.6823   -0.0133 C.ar      1 <0>        -0.0550
      6 C6          0.0021   -0.0041    0.0020 C.ar      1 <0>        -0.0858
      7 C7          1.2476   -2.1633   -0.0220 C.ar      1 <0>         0.0586
      8 C8          0.7443   -2.8623   -1.1176 C.ar      1 <0>        -0.1059
      9 C9          0.7641   -4.2503   -1.1370 C.ar      1 <0>         0.1741
     10 C10         1.2978   -4.9603   -0.0406 C.ar      1 <0>        -0.0288
     11 C11         1.1711   -6.3898   -0.3691 C.ar      1 <0>        -0.0945
     12 C12         1.5141   -7.5614    0.3052 C.ar      1 <0>        -0.0735
     13 C13         1.2616   -8.7878   -0.2800 C.ar      1 <0>         0.0785
     14 C14         0.6683   -8.8531   -1.5363 C.ar      1 <0>        -0.0948
     15 C15         0.3265   -7.7006   -2.2102 C.ar      1 <0>        -0.1257
     16 C16         0.5722   -6.4571   -1.6364 C.ar      1 <0>         0.1413
     17 N1          0.3368   -5.1656   -2.0786 N.pl3     1 <0>        -0.4981
     18 C17        -0.2788   -4.8200   -3.3623 C.3       1 <0>         0.1293
     19 C18         0.8102   -4.6727   -4.4269 C.3       1 <0>        -0.1636
     20 C19         0.1770   -4.3171   -5.7474 C.2       1 <0>         0.5244
     21 O1         -1.0268   -4.1937   -5.8290 O.2       1 <0>        -0.5347
     22 N2          0.9484   -4.1363   -6.8377 N.am      1 <0>        -0.6149
     23 C20         2.4104   -4.2867   -6.7646 C.3       1 <0>         0.0688
     24 C21         2.8568   -5.2252   -7.8915 C.3       1 <0>         0.0461
     25 O2          2.3283   -4.7541   -9.1335 O.3       1 <0>        -0.3763
     26 C22         0.9001   -4.7462   -9.1965 C.3       1 <0>         0.0469
     27 C23         0.3530   -3.7887   -8.1377 C.3       1 <0>         0.0754
     28 O3          1.5943   -9.9330    0.3737 O.3       1 <0>        -0.4932
     29 C24         1.8044   -4.2673    1.0595 C.ar      1 <0>        -0.0799
     30 C25         1.7840   -2.8596    1.0679 C.ar      1 <0>        -0.1509
     31 C26         2.3884   -2.4533    2.3485 C.2       1 <0>         0.5791
     32 O4          2.5449   -1.3094    2.7274 O.2       1 <0>        -0.4475
     33 N3          2.7379   -3.5599    3.0287 N.am      1 <0>        -0.6806
     34 C27         2.4184   -4.6701    2.3393 C.2       1 <0>         0.5793
     35 O5          2.6139   -5.8124    2.7038 O.2       1 <0>        -0.4563
     36 Cl1         3.9368   -0.7943   -0.0415 Cl        1 <0>        -0.0616
     37 H1         -0.9598    1.9012    0.0260 H         1 <0>         0.1336
     38 H2          1.1498    3.1667    0.0081 H         1 <0>         0.1348
     39 H3          3.3052    1.9822   -0.0201 H         1 <0>         0.1369
     40 H4         -0.9252   -0.5577    0.0083 H         1 <0>         0.1348
     41 H5          0.3356   -2.3202   -1.9575 H         1 <0>         0.1447
     42 H6          1.9754   -7.5105    1.2804 H         1 <0>         0.1478
     43 H7          0.4742   -9.8149   -1.9876 H         1 <0>         0.1395
     44 H8         -0.1334   -7.7627   -3.1854 H         1 <0>         0.1318
     45 H9         -0.9710   -5.6085   -3.6574 H         1 <0>         0.1038
     46 H10        -0.8204   -3.8791   -3.2640 H         1 <0>         0.1023
     47 H11         1.5024   -3.8841   -4.1319 H         1 <0>         0.1039
     48 H12         1.3518   -5.6135   -4.5253 H         1 <0>         0.1039
     49 H13         2.8861   -3.3137   -6.8871 H         1 <0>         0.0840
     50 H14         2.6879   -4.7127   -5.8004 H         1 <0>         0.0958
     51 H15         3.9455   -5.2415   -7.9418 H         1 <0>         0.1105
     52 H16         2.4855   -6.2312   -7.6960 H         1 <0>         0.0579
     53 H17         0.5811   -4.4180  -10.1857 H         1 <0>         0.1106
     54 H18         0.5217   -5.7505   -9.0057 H         1 <0>         0.0570
     55 H19        -0.7314   -3.8851   -8.0824 H         1 <0>         0.1044
     56 H20         0.6180   -2.7647   -8.4008 H         1 <0>         0.0793
     57 H21         0.8923  -10.2803    0.9408 H         1 <0>         0.3908
     58 H22         3.1568   -3.5579    3.9036 H         1 <0>         0.4316
@<TRIPOS>BOND
     1    1    6 ar
     2    1    2 ar
     3    1   37 1
     4    2    3 ar
     5    2   38 1
     6    3    4 ar
     7    3   39 1
     8    4    5 ar
     9    4   36 1
    10    5    6 ar
    11    5    7 1
    12    6   40 1
    13    7   30 ar
    14    7    8 ar
    15    8    9 ar
    16    8   41 1
    17    9   17 1
    18    9   10 ar
    19   10   11 1
    20   10   29 ar
    21   11   16 ar
    22   11   12 ar
    23   12   13 ar
    24   12   42 1
    25   13   14 ar
    26   13   28 1
    27   14   15 ar
    28   14   43 1
    29   15   16 ar
    30   15   44 1
    31   16   17 1
    32   17   18 1
    33   18   19 1
    34   18   45 1
    35   18   46 1
    36   19   20 1
    37   19   47 1
    38   19   48 1
    39   20   21 2
    40   20   22 am
    41   22   27 1
    42   22   23 1
    43   23   24 1
    44   23   49 1
    45   23   50 1
    46   24   25 1
    47   24   51 1
    48   24   52 1
    49   25   26 1
    50   26   27 1
    51   26   53 1
    52   26   54 1
    53   27   55 1
    54   27   56 1
    55   28   57 1
    56   29   34 1
    57   29   30 ar
    58   30   31 1
    59   31   32 2
    60   31   33 am
    61   33   34 am
    62   33   58 1
    63   34   35 2
@<TRIPOS>MOLECULE
CHEMBL272267
   63    68     0     0     0
SMALL
USER_CHARGES

@<TRIPOS>ATOM
      1 C1         -0.0178    1.4608    0.0101 C.3       1 <0>         0.0781
      2 N1          0.0021   -0.0041    0.0020 N.pl3     1 <0>        -0.5021
      3 C2          0.0074   -0.7860   -1.1355 C.ar      1 <0>         0.1793
      4 C3         -0.0033   -0.4599   -2.4860 C.ar      1 <0>        -0.1052
      5 C4          0.0058   -1.4607   -3.4547 C.ar      1 <0>         0.0686
      6 C5          0.0260   -2.8084   -3.0722 C.ar      1 <0>        -0.1466
      7 C6          0.0369   -3.1488   -1.7073 C.ar      1 <0>        -0.0712
      8 C7          0.0277   -2.1403   -0.7420 C.ar      1 <0>        -0.0457
      9 C8          0.0346   -2.1478    0.7302 C.ar      1 <0>        -0.0572
     10 C9          0.0242   -0.8018    1.1359 C.ar      1 <0>         0.1325
     11 C10         0.0334   -0.4953    2.4879 C.ar      1 <0>        -0.0929
     12 C11         0.0572   -1.5184    3.4350 C.ar      1 <0>        -0.1324
     13 C12         0.0719   -2.8609    3.0242 C.ar      1 <0>         0.1440
     14 C13         0.0529   -3.1702    1.6780 C.ar      1 <0>        -0.0812
     15 O1          0.0955   -3.8544    3.9494 O.3       1 <0>        -0.4715
     16 C14         0.0675   -1.1892    4.8728 C.2       1 <0>         0.5719
     17 O2          0.0882   -2.0800    5.7003 O.2       1 <0>        -0.4975
     18 N2          0.0539    0.0988    5.2694 N.am      1 <0>        -0.7348
     19 C15         0.0641    0.4257    6.6974 C.3       1 <0>         0.0982
     20 C16         0.0451    1.9454    6.8729 C.3       1 <0>        -0.0176
     21 N3          0.0553    2.2732    8.3048 N.4       1 <0>        -0.3910
     22 C17         1.3649    1.9099    8.9040 C.3       1 <0>        -0.0110
     23 C18         1.4294    2.7915   10.1765 C.3       1 <0>        -0.1453
     24 C19         0.7764    4.1143    9.7140 C.3       1 <0>        -0.1454
     25 C20        -0.0838    3.7334    8.4948 C.3       1 <0>        -0.0071
     26 C21         0.0572   -4.6241   -1.6580 C.2       1 <0>         0.5791
     27 O3          0.0711   -5.3003   -0.6489 O.2       1 <0>        -0.4550
     28 N4          0.0578   -5.0937   -2.9187 N.am      1 <0>        -0.6788
     29 C22         0.0399   -4.0847   -3.8082 C.2       1 <0>         0.5769
     30 O4          0.0356   -4.2057   -5.0172 O.2       1 <0>        -0.4396
     31 C23        -0.0062   -1.0997   -4.8911 C.ar      1 <0>        -0.0625
     32 C24         1.0774   -0.4246   -5.4527 C.ar      1 <0>        -0.0849
     33 C25         1.0607   -0.0915   -6.7913 C.ar      1 <0>        -0.1150
     34 C26        -0.0282   -0.4255   -7.5774 C.ar      1 <0>        -0.0917
     35 C27        -1.1063   -1.0944   -7.0275 C.ar      1 <0>        -0.1077
     36 C28        -1.0994   -1.4388   -5.6897 C.ar      1 <0>         0.0006
     37 Cl1        -2.4503   -2.2848   -5.0020 Cl        1 <0>        -0.0610
     38 H1          1.0048    1.8381    0.0023 H         1 <0>         0.0762
     39 H2         -0.5450    1.8219   -0.8730 H         1 <0>         0.0902
     40 H3         -0.5280    1.8123    0.9069 H         1 <0>         0.0840
     41 H4         -0.0192    0.5772   -2.7868 H         1 <0>         0.1484
     42 H5          0.0226    0.5362    2.8077 H         1 <0>         0.1302
     43 H6          0.0654   -4.2022    1.3601 H         1 <0>         0.1590
     44 H7         -0.7809   -4.1546    4.2266 H         1 <0>         0.3966
     45 H8          0.0374    0.8093    4.6093 H         1 <0>         0.4047
     46 H9         -0.8152   -0.0063    7.1753 H         1 <0>         0.0906
     47 H10         0.9645    0.0181    7.1570 H         1 <0>         0.0908
     48 H11         0.9243    2.3774    6.3950 H         1 <0>         0.1364
     49 H12        -0.8554    2.3530    6.4133 H         1 <0>         0.1369
     50 H13         1.3874    0.8523    9.1672 H         1 <0>         0.1386
     51 H14         2.1806    2.1555    8.2240 H         1 <0>         0.1356
     52 H15         0.8565    2.3413   10.9871 H         1 <0>         0.0997
     53 H16         2.4634    2.9570   10.4791 H         1 <0>         0.1181
     54 H17         0.1496    4.5239   10.5060 H         1 <0>         0.1065
     55 H18         1.5426    4.8341    9.4263 H         1 <0>         0.1046
     56 H19         0.2739    4.2588    7.6093 H         1 <0>         0.1313
     57 H20        -1.1273    3.9856    8.6832 H         1 <0>         0.1341
     58 H21         0.0692   -6.0345   -3.1548 H         1 <0>         0.4344
     59 H22         1.9279   -0.1629   -4.8407 H         1 <0>         0.1346
     60 H23         1.8992    0.4316   -7.2268 H         1 <0>         0.1351
     61 H24        -0.0361   -0.1622   -8.6248 H         1 <0>         0.1369
     62 H25        -1.9535   -1.3517   -7.6460 H         1 <0>         0.1388
     63 H26        -0.6918    1.7880    8.7786 H         1 <0>         0.4302
@<TRIPOS>BOND
     1    1    2 1
     2    1   38 1
     3    1   39 1
     4    1   40 1
     5    2   10 1
     6    2    3 1
     7    3    8 ar
     8    3    4 ar
     9    4    5 ar
    10    4   41 1
    11    5    6 ar
    12    5   31 1
    13    6   29 1
    14    6    7 ar
    15    7    8 ar
    16    7   26 1
    17    8    9 1
    18    9   14 ar
    19    9   10 ar
    20   10   11 ar
    21   11   12 ar
    22   11   42 1
    23   12   13 ar
    24   12   16 1
    25   13   14 ar
    26   13   15 1
    27   14   43 1
    28   15   44 1
    29   16   17 2
    30   16   18 am
    31   18   19 1
    32   18   45 1
    33   19   20 1
    34   19   46 1
    35   19   47 1
    36   20   21 1
    37   20   48 1
    38   20   49 1
    39   21   25 1
    40   21   22 1
    41   21   63 1
    42   22   23 1
    43   22   50 1
    44   22   51 1
    45   23   24 1
    46   23   52 1
    47   23   53 1
    48   24   25 1
    49   24   54 1
    50   24   55 1
    51   25   56 1
    52   25   57 1
    53   26   27 2
    54   26   28 am
    55   28   29 am
    56   28   58 1
    57   29   30 2
    58   31   36 ar
    59   31   32 ar
    60   32   33 ar
    61   32   59 1
    62   33   34 ar
    63   33   60 1
    64   34   35 ar
    65   34   61 1
    66   35   36 ar
    67   35   62 1
    68   36   37 1
@<TRIPOS>MOLECULE
CHEMBL520537
   52    57     0     0     0
SMALL
USER_CHARGES

@<TRIPOS>ATOM
      1 C1         -0.0166    1.3753    0.0096 C.ar      1 <0>        -0.1156
      2 C2          1.1702    2.0869    0.0021 C.ar      1 <0>        -0.0949
      3 C3          2.3823    1.4213   -0.0135 C.ar      1 <0>        -0.1086
      4 C4          2.4147    0.0403   -0.0213 C.ar      1 <0>        -0.0001
      5 C5          1.2208   -0.6823   -0.0133 C.ar      1 <0>        -0.0564
      6 C6          0.0021   -0.0041    0.0020 C.ar      1 <0>        -0.0860
      7 C7          1.2476   -2.1633   -0.0220 C.ar      1 <0>         0.0597
      8 C8          0.7443   -2.8623   -1.1176 C.ar      1 <0>        -0.1067
      9 C9          0.7641   -4.2503   -1.1370 C.ar      1 <0>         0.1727
     10 C10         1.2978   -4.9603   -0.0406 C.ar      1 <0>        -0.0271
     11 C11         1.1711   -6.3898   -0.3691 C.ar      1 <0>        -0.0927
     12 C12         1.5141   -7.5614    0.3052 C.ar      1 <0>        -0.0734
     13 C13         1.2616   -8.7878   -0.2800 C.ar      1 <0>         0.0806
     14 C14         0.6683   -8.8531   -1.5363 C.ar      1 <0>        -0.0941
     15 C15         0.3265   -7.7006   -2.2102 C.ar      1 <0>        -0.1259
     16 C16         0.5722   -6.4571   -1.6364 C.ar      1 <0>         0.1396
     17 N1          0.3368   -5.1656   -2.0786 N.pl3     1 <0>        -0.4992
     18 C17        -0.2788   -4.8200   -3.3623 C.3       1 <0>         0.1277
     19 C18         0.8102   -4.6727   -4.4269 C.3       1 <0>        -0.1696
     20 C19         0.1770   -4.3171   -5.7474 C.2       1 <0>         0.5413
     21 O1         -1.0222   -4.1942   -5.8287 O.2       1 <0>        -0.4634
     22 N2          0.9484   -4.1363   -6.8377 N.am      1 <0>        -0.4715
     23 C20         0.5164   -3.8055   -8.1013 C.2       1 <0>        -0.0302
     24 C21         1.6111   -3.7266   -8.8778 C.2       1 <0>        -0.0124
     25 N3          2.6864   -3.9994   -8.1211 N.2       1 <0>        -0.4656
     26 C22         2.3073   -4.2405   -6.8979 C.2       1 <0>         0.2081
     27 O2          1.5943   -9.9330    0.3737 O.3       1 <0>        -0.4928
     28 C23         1.8044   -4.2673    1.0595 C.ar      1 <0>        -0.0793
     29 C24         1.7840   -2.8596    1.0679 C.ar      1 <0>        -0.1491
     30 C25         2.3884   -2.4533    2.3485 C.2       1 <0>         0.5787
     31 O3          2.5449   -1.3094    2.7274 O.2       1 <0>        -0.4464
     32 N4          2.7379   -3.5599    3.0287 N.am      1 <0>        -0.6803
     33 C26         2.4184   -4.6701    2.3393 C.2       1 <0>         0.5791
     34 O4          2.6139   -5.8124    2.7038 O.2       1 <0>        -0.4555
     35 Cl1         3.9368   -0.7943   -0.0415 Cl        1 <0>        -0.0608
     36 H1         -0.9598    1.9012    0.0260 H         1 <0>         0.1337
     37 H2          1.1498    3.1667    0.0081 H         1 <0>         0.1351
     38 H3          3.3052    1.9822   -0.0201 H         1 <0>         0.1373
     39 H4         -0.9252   -0.5577    0.0083 H         1 <0>         0.1347
     40 H5          0.3356   -2.3202   -1.9575 H         1 <0>         0.1445
     41 H6          1.9754   -7.5105    1.2804 H         1 <0>         0.1484
     42 H7          0.4742   -9.8149   -1.9876 H         1 <0>         0.1403
     43 H8         -0.1334   -7.7627   -3.1854 H         1 <0>         0.1319
     44 H9         -0.9710   -5.6085   -3.6574 H         1 <0>         0.1068
     45 H10        -0.8204   -3.8791   -3.2640 H         1 <0>         0.1050
     46 H11         1.5024   -3.8841   -4.1319 H         1 <0>         0.1189
     47 H12         1.3518   -5.6135   -4.5253 H         1 <0>         0.1199
     48 H13        -0.5053   -3.6413   -8.4101 H         1 <0>         0.1872
     49 H14         1.6235   -3.4851   -9.9303 H         1 <0>         0.1831
     50 H15         2.9588   -4.4842   -6.0717 H         1 <0>         0.2196
     51 H16         0.8923  -10.2803    0.9408 H         1 <0>         0.3914
     52 H17         3.1568   -3.5579    3.9036 H         1 <0>         0.4320
@<TRIPOS>BOND
     1    1    6 ar
     2    1    2 ar
     3    1   36 1
     4    2    3 ar
     5    2   37 1
     6    3    4 ar
     7    3   38 1
     8    4    5 ar
     9    4   35 1
    10    5    6 ar
    11    5    7 1
    12    6   39 1
    13    7   29 ar
    14    7    8 ar
    15    8    9 ar
    16    8   40 1
    17    9   17 1
    18    9   10 ar
    19   10   11 1
    20   10   28 ar
    21   11   16 ar
    22   11   12 ar
    23   12   13 ar
    24   12   41 1
    25   13   14 ar
    26   13   27 1
    27   14   15 ar
    28   14   42 1
    29   15   16 ar
    30   15   43 1
    31   16   17 1
    32   17   18 1
    33   18   19 1
    34   18   44 1
    35   18   45 1
    36   19   20 1
    37   19   46 1
    38   19   47 1
    39   20   21 2
    40   20   22 am
    41   22   26 1
    42   22   23 1
    43   23   24 2
    44   23   48 1
    45   24   25 1
    46   24   49 1
    47   25   26 2
    48   26   50 1
    49   27   51 1
    50   28   33 1
    51   28   29 ar
    52   29   30 1
    53   30   31 2
    54   30   32 am
    55   32   33 am
    56   32   52 1
    57   33   34 2
@<TRIPOS>MOLECULE
CHEMBL486665
   54    59     0     0     0
SMALL
USER_CHARGES

@<TRIPOS>ATOM
      1 C1         -0.0166    1.3753    0.0096 C.ar      1 <0>        -0.1145
      2 C2          1.1702    2.0869    0.0021 C.ar      1 <0>        -0.0924
      3 C3          2.3823    1.4213   -0.0135 C.ar      1 <0>        -0.1078
      4 C4          2.4147    0.0403   -0.0213 C.ar      1 <0>        -0.0012
      5 C5          1.2208   -0.6823   -0.0133 C.ar      1 <0>        -0.0601
      6 C6          0.0021   -0.0041    0.0020 C.ar      1 <0>        -0.0863
      7 C7          1.2476   -2.1633   -0.0220 C.ar      1 <0>         0.0620
      8 C8          0.7443   -2.8623   -1.1176 C.ar      1 <0>        -0.1094
      9 C9          0.7641   -4.2503   -1.1370 C.ar      1 <0>         0.1693
     10 C10         1.2978   -4.9603   -0.0406 C.ar      1 <0>        -0.0286
     11 C11         1.1711   -6.3898   -0.3691 C.ar      1 <0>        -0.0909
     12 C12         1.5141   -7.5614    0.3052 C.ar      1 <0>        -0.0731
     13 C13         1.2616   -8.7878   -0.2800 C.ar      1 <0>         0.0856
     14 C14         0.6683   -8.8531   -1.5363 C.ar      1 <0>        -0.0950
     15 C15         0.3265   -7.7006   -2.2102 C.ar      1 <0>        -0.1288
     16 C16         0.5722   -6.4571   -1.6364 C.ar      1 <0>         0.1351
     17 N1          0.3368   -5.1656   -2.0786 N.pl3     1 <0>        -0.5025
     18 C17        -0.2788   -4.8200   -3.3623 C.3       1 <0>         0.1190
     19 C18         0.8102   -4.6727   -4.4269 C.3       1 <0>        -0.1673
     20 C19         0.1673   -4.3117   -5.7675 C.3       1 <0>         0.0956
     21 N2          1.2100   -4.1707   -6.7869 N.pl3     1 <0>        -0.4091
     22 C20         1.8856   -3.0233   -7.1044 C.2       1 <0>         0.0258
     23 C21         2.7493   -3.3393   -8.0881 C.2       1 <0>         0.0057
     24 N3          2.6051   -4.6440   -8.3637 N.pl3     1 <0>        -0.4752
     25 C22         1.6884   -5.1496   -7.5847 C.cat     1 <0>         0.2892
     26 O1          1.5943   -9.9330    0.3737 O.3       1 <0>        -0.4925
     27 C23         1.8044   -4.2673    1.0595 C.ar      1 <0>        -0.0763
     28 C24         1.7840   -2.8596    1.0679 C.ar      1 <0>        -0.1448
     29 C25         2.3884   -2.4533    2.3485 C.2       1 <0>         0.5763
     30 O2          2.5449   -1.3094    2.7274 O.2       1 <0>        -0.4417
     31 N4          2.7379   -3.5599    3.0287 N.am      1 <0>        -0.6791
     32 C26         2.4184   -4.6701    2.3393 C.2       1 <0>         0.5769
     33 O3          2.6139   -5.8124    2.7038 O.2       1 <0>        -0.4523
     34 Cl1         3.9368   -0.7943   -0.0415 Cl        1 <0>        -0.0619
     35 H1         -0.9598    1.9012    0.0260 H         1 <0>         0.1352
     36 H2          1.1498    3.1667    0.0081 H         1 <0>         0.1369
     37 H3          3.3052    1.9822   -0.0201 H         1 <0>         0.1383
     38 H4         -0.9252   -0.5577    0.0083 H         1 <0>         0.1345
     39 H5          0.3356   -2.3202   -1.9575 H         1 <0>         0.1423
     40 H6          1.9754   -7.5105    1.2804 H         1 <0>         0.1501
     41 H7          0.4742   -9.8149   -1.9876 H         1 <0>         0.1412
     42 H8         -0.1334   -7.7627   -3.1854 H         1 <0>         0.1291
     43 H9         -0.9710   -5.6085   -3.6574 H         1 <0>         0.1026
     44 H10        -0.8204   -3.8791   -3.2640 H         1 <0>         0.1011
     45 H11         1.5024   -3.8841   -4.1319 H         1 <0>         0.0905
     46 H12         1.3518   -5.6135   -4.5253 H         1 <0>         0.0892
     47 H13        -0.5249   -5.1003   -6.0626 H         1 <0>         0.1264
     48 H14        -0.3743   -3.3709   -5.6692 H         1 <0>         0.1290
     49 H15         1.7514   -2.0513   -6.6531 H         1 <0>         0.2234
     50 H16         3.4375   -2.6610   -8.5705 H         1 <0>         0.2246
     51 H17         1.3641   -6.1798   -7.5805 H         1 <0>         0.2600
     52 H18         0.8923  -10.2803    0.9408 H         1 <0>         0.3952
     53 H19         3.1568   -3.5579    3.9036 H         1 <0>         0.4345
     54 H20         3.1059   -5.1350   -9.0338 H         1 <0>         0.4662
@<TRIPOS>BOND
     1    1    6 ar
     2    1    2 ar
     3    1   35 1
     4    2    3 ar
     5    2   36 1
     6    3    4 ar
     7    3   37 1
     8    4    5 ar
     9    4   34 1
    10    5    6 ar
    11    5    7 1
    12    6   38 1
    13    7   28 ar
    14    7    8 ar
    15    8    9 ar
    16    8   39 1
    17    9   17 1
    18    9   10 ar
    19   10   11 1
    20   10   27 ar
    21   11   16 ar
    22   11   12 ar
    23   12   13 ar
    24   12   40 1
    25   13   14 ar
    26   13   26 1
    27   14   15 ar
    28   14   41 1
    29   15   16 ar
    30   15   42 1
    31   16   17 1
    32   17   18 1
    33   18   19 1
    34   18   43 1
    35   18   44 1
    36   19   20 1
    37   19   45 1
    38   19   46 1
    39   20   21 1
    40   20   47 1
    41   20   48 1
    42   21   25 1
    43   21   22 1
    44   22   23 2
    45   22   49 1
    46   23   24 1
    47   23   50 1
    48   24   25 2
    49   24   54 1
    50   25   51 1
    51   26   52 1
    52   27   32 1
    53   27   28 ar
    54   28   29 1
    55   29   30 2
    56   29   31 am
    57   31   32 am
    58   31   53 1
    59   32   33 2
@<TRIPOS>MOLECULE
CHEMBL486665
   53    58     0     0     0
SMALL
USER_CHARGES

@<TRIPOS>ATOM
      1 C1         -0.0166    1.3753    0.0096 C.ar      1 <0>        -0.1159
      2 C2          1.1702    2.0869    0.0021 C.ar      1 <0>        -0.0952
      3 C3          2.3823    1.4213   -0.0135 C.ar      1 <0>        -0.1085
      4 C4          2.4147    0.0403   -0.0213 C.ar      1 <0>        -0.0002
      5 C5          1.2208   -0.6823   -0.0133 C.ar      1 <0>        -0.0552
      6 C6          0.0021   -0.0041    0.0020 C.ar      1 <0>        -0.0865
      7 C7          1.2476   -2.1633   -0.0220 C.ar      1 <0>         0.0587
      8 C8          0.7443   -2.8623   -1.1176 C.ar      1 <0>        -0.1062
      9 C9          0.7641   -4.2503   -1.1370 C.ar      1 <0>         0.1742
     10 C10         1.2978   -4.9603   -0.0406 C.ar      1 <0>        -0.0292
     11 C11         1.1711   -6.3898   -0.3691 C.ar      1 <0>        -0.0949
     12 C12         1.5141   -7.5614    0.3052 C.ar      1 <0>        -0.0737
     13 C13         1.2616   -8.7878   -0.2800 C.ar      1 <0>         0.0792
     14 C14         0.6683   -8.8531   -1.5363 C.ar      1 <0>        -0.0948
     15 C15         0.3265   -7.7006   -2.2102 C.ar      1 <0>        -0.1254
     16 C16         0.5722   -6.4571   -1.6364 C.ar      1 <0>         0.1412
     17 N1          0.3368   -5.1656   -2.0786 N.pl3     1 <0>        -0.4976
     18 C17        -0.2788   -4.8200   -3.3623 C.3       1 <0>         0.1164
     19 C18         0.8102   -4.6727   -4.4269 C.3       1 <0>        -0.1593
     20 C19         0.1673   -4.3117   -5.7675 C.3       1 <0>         0.1095
     21 N2          1.2100   -4.1707   -6.7869 N.pl3     1 <0>        -0.4615
     22 C20         1.8853   -3.0232   -7.1047 C.2       1 <0>        -0.0567
     23 C21         2.7491   -3.3392   -8.0883 C.2       1 <0>        -0.0268
     24 N3          2.6053   -4.6440   -8.3635 N.2       1 <0>        -0.4931
     25 C22         1.6887   -5.1497   -7.5844 C.2       1 <0>         0.1824
     26 O1          1.5943   -9.9330    0.3737 O.3       1 <0>        -0.4927
     27 C23         1.8044   -4.2673    1.0595 C.ar      1 <0>        -0.0796
     28 C24         1.7840   -2.8596    1.0679 C.ar      1 <0>        -0.1508
     29 C25         2.3884   -2.4533    2.3485 C.2       1 <0>         0.5790
     30 O2          2.5449   -1.3094    2.7274 O.2       1 <0>        -0.4471
     31 N4          2.7379   -3.5599    3.0287 N.am      1 <0>        -0.6804
     32 C26         2.4184   -4.6701    2.3393 C.2       1 <0>         0.5789
     33 O3          2.6139   -5.8124    2.7038 O.2       1 <0>        -0.4557
     34 Cl1         3.9368   -0.7943   -0.0415 Cl        1 <0>        -0.0604
     35 H1         -0.9598    1.9012    0.0260 H         1 <0>         0.1336
     36 H2          1.1498    3.1667    0.0081 H         1 <0>         0.1350
     37 H3          3.3052    1.9822   -0.0201 H         1 <0>         0.1372
     38 H4         -0.9252   -0.5577    0.0083 H         1 <0>         0.1343
     39 H5          0.3356   -2.3202   -1.9575 H         1 <0>         0.1439
     40 H6          1.9754   -7.5105    1.2804 H         1 <0>         0.1479
     41 H7          0.4742   -9.8149   -1.9876 H         1 <0>         0.1401
     42 H8         -0.1334   -7.7627   -3.1854 H         1 <0>         0.1318
     43 H9         -0.9710   -5.6085   -3.6574 H         1 <0>         0.0990
     44 H10        -0.8204   -3.8791   -3.2640 H         1 <0>         0.0967
     45 H11         1.5024   -3.8841   -4.1319 H         1 <0>         0.0809
     46 H12         1.3518   -5.6135   -4.5253 H         1 <0>         0.0823
     47 H13        -0.5249   -5.1003   -6.0626 H         1 <0>         0.0989
     48 H14        -0.3743   -3.3709   -5.6692 H         1 <0>         0.0965
     49 H15         1.7508   -2.0511   -6.6537 H         1 <0>         0.1737
     50 H16         3.4372   -2.6609   -8.5709 H         1 <0>         0.1700
     51 H17         1.3647   -6.1800   -7.5799 H         1 <0>         0.2035
     52 H18         0.8923  -10.2803    0.9408 H         1 <0>         0.3908
     53 H19         3.1568   -3.5579    3.9036 H         1 <0>         0.4319
@<TRIPOS>BOND
     1    1    6 ar
     2    1    2 ar
     3    1   35 1
     4    2    3 ar
     5    2   36 1
     6    3    4 ar
     7    3   37 1
     8    4    5 ar
     9    4   34 1
    10    5    6 ar
    11    5    7 1
    12    6   38 1
    13    7   28 ar
    14    7    8 ar
    15    8    9 ar
    16    8   39 1
    17    9   17 1
    18    9   10 ar
    19   10   11 1
    20   10   27 ar
    21   11   16 ar
    22   11   12 ar
    23   12   13 ar
    24   12   40 1
    25   13   14 ar
    26   13   26 1
    27   14   15 ar
    28   14   41 1
    29   15   16 ar
    30   15   42 1
    31   16   17 1
    32   17   18 1
    33   18   19 1
    34   18   43 1
    35   18   44 1
    36   19   20 1
    37   19   45 1
    38   19   46 1
    39   20   21 1
    40   20   47 1
    41   20   48 1
    42   21   25 1
    43   21   22 1
    44   22   23 2
    45   22   49 1
    46   23   24 1
    47   23   50 1
    48   24   25 2
    49   25   51 1
    50   26   52 1
    51   27   32 1
    52   27   28 ar
    53   28   29 1
    54   29   30 2
    55   29   31 am
    56   31   32 am
    57   31   53 1
    58   32   33 2
@<TRIPOS>MOLECULE
CHEMBL460079
   58    63     0     0     0
SMALL
USER_CHARGES

@<TRIPOS>ATOM
      1 C1         -0.0167    1.3786    0.0096 C.ar      1 <0>        -0.1778
      2 C2          1.1695    2.0894    0.0021 C.ar      1 <0>        -0.0724
      3 C3          2.3774    1.4200   -0.0130 C.ar      1 <0>        -0.1950
      4 C4          2.3998    0.0311   -0.0206 C.ar      1 <0>         0.2129
      5 C5          1.2064   -0.6798   -0.0130 C.ar      1 <0>        -0.1980
      6 C6          0.0021   -0.0041    0.0020 C.ar      1 <0>        -0.0731
      7 N1          3.6196   -0.6492   -0.0363 N.pl3     1 <0>        -0.7503
      8 C7          3.6414   -2.1140   -0.0443 C.3       1 <0>         0.1302
      9 C8          5.0913   -2.6024   -0.0613 C.3       1 <0>        -0.1531
     10 C9          5.1140   -4.1322   -0.0697 C.3       1 <0>         0.1163
     11 N2          6.5023   -4.5998   -0.0859 N.pl3     1 <0>        -0.4969
     12 C10         7.2426   -4.8406   -1.2319 C.ar      1 <0>         0.1419
     13 C11         6.9360   -4.7271   -2.5843 C.ar      1 <0>        -0.1250
     14 C12         7.8821   -5.0387   -3.5367 C.ar      1 <0>        -0.0953
     15 C13         9.1498   -5.4692   -3.1599 C.ar      1 <0>         0.0782
     16 C14         9.4725   -5.5881   -1.8212 C.ar      1 <0>        -0.0739
     17 C15         8.5214   -5.2744   -0.8506 C.ar      1 <0>        -0.0956
     18 C16         8.5370   -5.2908    0.6213 C.ar      1 <0>        -0.0298
     19 C17         7.2608   -4.8576    1.0390 C.ar      1 <0>         0.1748
     20 C18         6.9732   -4.7638    2.3938 C.ar      1 <0>        -0.1056
     21 C19         7.9372   -5.0909    3.3458 C.ar      1 <0>         0.0584
     22 C20         9.2075   -5.5176    2.9401 C.ar      1 <0>        -0.1513
     23 C21         9.5060   -5.6245    1.5683 C.ar      1 <0>        -0.0802
     24 C22        10.9029   -6.0937    1.4937 C.2       1 <0>         0.5791
     25 O1         11.5296   -6.2969    0.4730 O.2       1 <0>        -0.4563
     26 N3         11.3660   -6.2588    2.7460 N.am      1 <0>        -0.6807
     27 C23        10.4286   -5.9307    3.6534 C.2       1 <0>         0.5791
     28 O2         10.5626   -5.9787    4.8601 O.2       1 <0>        -0.4475
     29 C24         7.6176   -4.9866    4.7883 C.ar      1 <0>        -0.0549
     30 C25         6.6510   -5.8184    5.3534 C.ar      1 <0>        -0.0861
     31 C26         6.3580   -5.7169    6.6977 C.ar      1 <0>        -0.1156
     32 C27         7.0204   -4.7923    7.4859 C.ar      1 <0>        -0.0954
     33 C28         7.9795   -3.9639    6.9325 C.ar      1 <0>        -0.1090
     34 C29         8.2863   -4.0595    5.5890 C.ar      1 <0>         0.0001
     35 Cl1         9.4957   -3.0241    4.8968 Cl        1 <0>        -0.0616
     36 O3         10.0734   -5.7742   -4.1104 O.3       1 <0>        -0.4929
     37 H1         -0.9598    1.9046    0.0260 H         1 <0>         0.1184
     38 H2          1.1513    3.1692    0.0077 H         1 <0>         0.1210
     39 H3          3.3034    1.9757   -0.0192 H         1 <0>         0.1184
     40 H4          1.2204   -1.7597   -0.0193 H         1 <0>         0.1187
     41 H5         -0.9261   -0.5561    0.0079 H         1 <0>         0.1204
     42 H6          4.4523   -0.1517   -0.0419 H         1 <0>         0.4000
     43 H7          3.1419   -2.4897    0.8486 H         1 <0>         0.0632
     44 H8          3.1243   -2.4802   -0.9312 H         1 <0>         0.0632
     45 H9          5.5908   -2.2267   -0.9543 H         1 <0>         0.0795
     46 H10         5.6084   -2.2362    0.8256 H         1 <0>         0.0789
     47 H11         4.6145   -4.5079    0.8233 H         1 <0>         0.0965
     48 H12         4.5969   -4.4984   -0.9566 H         1 <0>         0.0982
     49 H13         5.9545   -4.3945   -2.8883 H         1 <0>         0.1321
     50 H14         7.6369   -4.9482   -4.5846 H         1 <0>         0.1395
     51 H15        10.4567   -5.9223   -1.5281 H         1 <0>         0.1477
     52 H16         5.9952   -4.4346    2.7126 H         1 <0>         0.1446
     53 H17        12.2609   -6.5619    2.9654 H         1 <0>         0.4316
     54 H18         6.1328   -6.5403    4.7397 H         1 <0>         0.1346
     55 H19         5.6094   -6.3604    7.1359 H         1 <0>         0.1336
     56 H20         6.7871   -4.7171    8.5377 H         1 <0>         0.1349
     57 H21         8.4929   -3.2441    7.5528 H         1 <0>         0.1369
     58 H22        10.6230   -5.0254   -4.3794 H         1 <0>         0.3905
@<TRIPOS>BOND
     1    1    6 ar
     2    1    2 ar
     3    1   37 1
     4    2    3 ar
     5    2   38 1
     6    3    4 ar
     7    3   39 1
     8    4    5 ar
     9    4    7 1
    10    5    6 ar
    11    5   40 1
    12    6   41 1
    13    7    8 1
    14    7   42 1
    15    8    9 1
    16    8   43 1
    17    8   44 1
    18    9   10 1
    19    9   45 1
    20    9   46 1
    21   10   11 1
    22   10   47 1
    23   10   48 1
    24   11   19 1
    25   11   12 1
    26   12   17 ar
    27   12   13 ar
    28   13   14 ar
    29   13   49 1
    30   14   15 ar
    31   14   50 1
    32   15   16 ar
    33   15   36 1
    34   16   17 ar
    35   16   51 1
    36   17   18 1
    37   18   23 ar
    38   18   19 ar
    39   19   20 ar
    40   20   21 ar
    41   20   52 1
    42   21   22 ar
    43   21   29 1
    44   22   27 1
    45   22   23 ar
    46   23   24 1
    47   24   25 2
    48   24   26 am
    49   26   27 am
    50   26   53 1
    51   27   28 2
    52   29   34 ar
    53   29   30 ar
    54   30   31 ar
    55   30   54 1
    56   31   32 ar
    57   31   55 1
    58   32   33 ar
    59   32   56 1
    60   33   34 ar
    61   33   57 1
    62   34   35 1
    63   36   58 1
@<TRIPOS>MOLECULE
CHEMBL484808
   37    40     0     0     0
SMALL
USER_CHARGES

@<TRIPOS>ATOM
      1 C1         -0.0168    1.3862    0.0097 C.ar      1 <0>        -0.0959
      2 C2          1.1609    2.1025    0.0023 C.ar      1 <0>        -0.1252
      3 C3          2.3825    1.4375   -0.0134 C.ar      1 <0>         0.1389
      4 C4          2.4030    0.0342   -0.0211 C.ar      1 <0>        -0.0945
      5 C5          1.2070   -0.6819   -0.0137 C.ar      1 <0>        -0.0746
      6 C6          0.0021   -0.0041    0.0020 C.ar      1 <0>         0.0784
      7 O1         -1.1671   -0.6986    0.0094 O.3       1 <0>        -0.4934
      8 C7          3.8205   -0.3634   -0.0373 C.ar      1 <0>        -0.0343
      9 C8          4.5699    0.8308   -0.0384 C.ar      1 <0>         0.1720
     10 N1          3.6904    1.8941   -0.0239 N.pl3     1 <0>        -0.4986
     11 C9          4.0840    3.3052   -0.0207 C.3       1 <0>         0.1278
     12 C10         4.2357    3.7891    1.4228 C.3       1 <0>        -0.1661
     13 C11         4.6405    5.2407    1.4261 C.2       1 <0>         0.5233
     14 O2          4.7927    5.8302    0.3772 O.2       1 <0>        -0.5411
     15 N2          4.8335    5.8838    2.5947 N.am      1 <0>        -0.8527
     16 C12         5.9601    0.7720   -0.0525 C.ar      1 <0>        -0.1223
     17 C13         6.6119   -0.4454   -0.0655 C.ar      1 <0>        -0.0091
     18 C14         5.8862   -1.6303   -0.0646 C.ar      1 <0>        -0.1717
     19 C15         4.4779   -1.5935   -0.0510 C.ar      1 <0>        -0.0820
     20 C16         4.0364   -3.0012   -0.0545 C.2       1 <0>         0.5780
     21 O3          2.8830   -3.3824   -0.0452 O.2       1 <0>        -0.4566
     22 N3          5.1243   -3.7922   -0.0704 N.am      1 <0>        -0.6807
     23 C17         6.2528   -3.0602   -0.0757 C.2       1 <0>         0.5827
     24 O4          7.3844   -3.5020   -0.0893 O.2       1 <0>        -0.4628
     25 H1         -0.9617    1.9091    0.0260 H         1 <0>         0.1396
     26 H2          1.1351    3.1822    0.0083 H         1 <0>         0.1324
     27 H3          1.2216   -1.7618   -0.0199 H         1 <0>         0.1470
     28 H4         -1.5137   -0.8947   -0.8718 H         1 <0>         0.3908
     29 H5          5.0335    3.4188   -0.5437 H         1 <0>         0.1027
     30 H6          3.3191    3.8969   -0.5237 H         1 <0>         0.1031
     31 H7          3.2861    3.6755    1.9458 H         1 <0>         0.1044
     32 H8          5.0006    3.1974    1.9258 H         1 <0>         0.1041
     33 H9          4.7118    5.4123    3.4336 H         1 <0>         0.4041
     34 H10         5.0940    6.8182    2.5968 H         1 <0>         0.4060
     35 H11         6.5345    1.6866   -0.0537 H         1 <0>         0.1439
     36 H12         7.6913   -0.4767   -0.0768 H         1 <0>         0.1509
     37 H13         5.0985   -4.7618   -0.0756 H         1 <0>         0.4315
@<TRIPOS>BOND
     1    1    6 ar
     2    1    2 ar
     3    1   25 1
     4    2    3 ar
     5    2   26 1
     6    3   10 1
     7    3    4 ar
     8    4    5 ar
     9    4    8 1
    10    5    6 ar
    11    5   27 1
    12    6    7 1
    13    7   28 1
    14    8   19 ar
    15    8    9 ar
    16    9   10 1
    17    9   16 ar
    18   10   11 1
    19   11   12 1
    20   11   29 1
    21   11   30 1
    22   12   13 1
    23   12   31 1
    24   12   32 1
    25   13   14 2
    26   13   15 am
    27   15   33 1
    28   15   34 1
    29   16   17 ar
    30   16   35 1
    31   17   18 ar
    32   17   36 1
    33   18   23 1
    34   18   19 ar
    35   19   20 1
    36   20   21 2
    37   20   22 am
    38   22   23 am
    39   22   37 1
    40   23   24 2
@<TRIPOS>MOLECULE
CHEMBL404335
   63    68     0     0     0
SMALL
USER_CHARGES

@<TRIPOS>ATOM
      1 C1         -0.0178    1.4608    0.0101 C.3       1 <0>         0.0796
      2 N1          0.0021   -0.0041    0.0020 N.pl3     1 <0>        -0.5024
      3 C2          0.0074   -0.7870   -1.1362 C.ar      1 <0>         0.1709
      4 C3         -0.0032   -0.4626   -2.4855 C.ar      1 <0>        -0.1023
      5 C4          0.0054   -1.4647   -3.4544 C.ar      1 <0>         0.0628
      6 C5          0.0255   -2.8112   -3.0715 C.ar      1 <0>        -0.1444
      7 C6          0.0370   -3.1513   -1.7049 C.ar      1 <0>        -0.0789
      8 C7          0.0277   -2.1416   -0.7404 C.ar      1 <0>        -0.0317
      9 C8          0.0346   -2.1464    0.7305 C.ar      1 <0>        -0.0926
     10 C9          0.0242   -0.8016    1.1348 C.ar      1 <0>         0.1616
     11 C10         0.0327   -0.4963    2.4905 C.ar      1 <0>        -0.1454
     12 C11         0.0556   -1.5136    3.4310 C.ar      1 <0>        -0.0764
     13 C12         0.0698   -2.8514    3.0261 C.ar      1 <0>         0.0980
     14 C13         0.0524   -3.1671    1.6837 C.ar      1 <0>        -0.0498
     15 O1          0.0923   -3.8433    3.9574 O.3       1 <0>        -0.4815
     16 S1          0.0675   -1.1184    5.1481 S.3       1 <0>        -0.0532
     17 C14         0.0437    0.6951    5.1812 C.3       1 <0>        -0.1307
     18 C15         0.0518    1.1789    6.6327 C.3       1 <0>        -0.1312
     19 C16         0.0317    2.7085    6.6606 C.3       1 <0>        -0.0001
     20 N2          0.0395    3.1730    8.0542 N.4       1 <0>        -0.3946
     21 C17         1.3483    2.8699    8.6878 C.3       1 <0>        -0.0089
     22 C18         1.4103    3.8704    9.8693 C.3       1 <0>        -0.1458
     23 C19         0.7574    5.1419    9.2803 C.3       1 <0>        -0.1456
     24 C20        -0.1006    4.6445    8.1022 C.3       1 <0>        -0.0082
     25 C21         0.0571   -4.6247   -1.6551 C.2       1 <0>         0.5798
     26 O2          0.0713   -5.3003   -0.6452 O.2       1 <0>        -0.4569
     27 N3          0.0572   -5.0957   -2.9152 N.am      1 <0>        -0.6791
     28 C22         0.0391   -4.0879   -3.8061 C.2       1 <0>         0.5771
     29 O3          0.0351   -4.2103   -5.0151 O.2       1 <0>        -0.4409
     30 C23        -0.0071   -1.1045   -4.8910 C.ar      1 <0>        -0.0605
     31 C24         1.0764   -0.4298   -5.4534 C.ar      1 <0>        -0.0855
     32 C25         1.0592   -0.0973   -6.7921 C.ar      1 <0>        -0.1151
     33 C26        -0.0299   -0.4316   -7.5777 C.ar      1 <0>        -0.0925
     34 C27        -1.1078   -1.1005   -7.0271 C.ar      1 <0>        -0.1078
     35 C28        -1.1007   -1.4438   -5.6891 C.ar      1 <0>         0.0002
     36 Cl1        -2.4512   -2.2899   -5.0006 Cl        1 <0>        -0.0612
     37 H1          1.0048    1.8381    0.0023 H         1 <0>         0.0747
     38 H2         -0.5450    1.8219   -0.8730 H         1 <0>         0.0897
     39 H3         -0.5280    1.8123    0.9069 H         1 <0>         0.0817
     40 H4         -0.0188    0.5743   -2.7872 H         1 <0>         0.1468
     41 H5          0.0218    0.5349    2.8113 H         1 <0>         0.1279
     42 H6          0.0650   -4.2006    1.3703 H         1 <0>         0.1573
     43 H7         -0.7845   -4.1420    4.2351 H         1 <0>         0.3921
     44 H8          0.9236    1.0795    4.6652 H         1 <0>         0.0984
     45 H9         -0.8561    1.0559    4.6830 H         1 <0>         0.0978
     46 H10        -0.8280    0.7945    7.1487 H         1 <0>         0.0986
     47 H11         0.9517    0.8182    7.1309 H         1 <0>         0.0988
     48 H12         0.9116    3.0929    6.1446 H         1 <0>         0.1317
     49 H13        -0.8681    3.0692    6.1624 H         1 <0>         0.1322
     50 H14         1.3708    1.8428    9.0519 H         1 <0>         0.1366
     51 H15         2.1649    3.0494    7.9886 H         1 <0>         0.1344
     52 H16         0.8362    3.5001   10.7187 H         1 <0>         0.0987
     53 H17         2.4437    4.0649   10.1562 H         1 <0>         0.1172
     54 H18         0.1291    5.6257   10.0281 H         1 <0>         0.1056
     55 H19         1.5237    5.8311    8.9257 H         1 <0>         0.1039
     56 H20         0.2583    5.0822    7.1707 H         1 <0>         0.1303
     57 H21        -1.1446    4.9131    8.2637 H         1 <0>         0.1327
     58 H22         0.0684   -6.0367   -3.1502 H         1 <0>         0.4338
     59 H23         1.9271   -0.1678   -4.8418 H         1 <0>         0.1342
     60 H24         1.8977    0.4254   -7.2282 H         1 <0>         0.1347
     61 H25        -0.0383   -0.1686   -8.6251 H         1 <0>         0.1366
     62 H26        -1.9551   -1.3583   -7.6453 H         1 <0>         0.1385
     63 H27        -0.7082    2.7352    8.5715 H         1 <0>         0.4281
@<TRIPOS>BOND
     1    1    2 1
     2    1   37 1
     3    1   38 1
     4    1   39 1
     5    2   10 1
     6    2    3 1
     7    3    8 ar
     8    3    4 ar
     9    4    5 ar
    10    4   40 1
    11    5    6 ar
    12    5   30 1
    13    6   28 1
    14    6    7 ar
    15    7    8 ar
    16    7   25 1
    17    8    9 1
    18    9   14 ar
    19    9   10 ar
    20   10   11 ar
    21   11   12 ar
    22   11   41 1
    23   12   13 ar
    24   12   16 1
    25   13   14 ar
    26   13   15 1
    27   14   42 1
    28   15   43 1
    29   16   17 1
    30   17   18 1
    31   17   44 1
    32   17   45 1
    33   18   19 1
    34   18   46 1
    35   18   47 1
    36   19   20 1
    37   19   48 1
    38   19   49 1
    39   20   24 1
    40   20   21 1
    41   20   63 1
    42   21   22 1
    43   21   50 1
    44   21   51 1
    45   22   23 1
    46   22   52 1
    47   22   53 1
    48   23   24 1
    49   23   54 1
    50   23   55 1
    51   24   56 1
    52   24   57 1
    53   25   26 2
    54   25   27 am
    55   27   28 am
    56   27   58 1
    57   28   29 2
    58   30   35 ar
    59   30   31 ar
    60   31   32 ar
    61   31   59 1
    62   32   33 ar
    63   32   60 1
    64   33   34 ar
    65   33   61 1
    66   34   35 ar
    67   34   62 1
    68   35   36 1
@<TRIPOS>MOLECULE
CHEMBL113070
   52    55     0     0     0
SMALL
USER_CHARGES

@<TRIPOS>ATOM
      1 C1         -0.0518    1.4095    0.7071 C.3       1 <0>         0.0709
      2 N1         -0.0222   -0.0407    0.5011 N.am      1 <0>        -0.5064
      3 C2         -1.1943   -0.7197    0.2832 C.ar      1 <0>         0.4673
      4 C3         -1.1833   -2.1170    0.0825 C.ar      1 <0>        -0.2853
      5 C4          0.0376   -2.8292    0.1045 C.2       1 <0>         0.0392
      6 C5          1.2022   -2.1432    0.3227 C.2       1 <0>        -0.1760
      7 C6          1.1560   -0.6931    0.5222 C.2       1 <0>         0.5599
      8 O1          2.1880   -0.0744    0.7124 O.2       1 <0>        -0.5096
      9 C7          2.4981   -2.8608    0.3520 C.ar      1 <0>        -0.0042
     10 C8          2.9865   -3.3765    1.5532 C.ar      1 <0>        -0.0074
     11 C9          4.1950   -4.0448    1.5735 C.ar      1 <0>        -0.1071
     12 C10         4.9210   -4.2031    0.4068 C.ar      1 <0>        -0.0901
     13 C11         4.4428   -3.6939   -0.7871 C.ar      1 <0>        -0.1074
     14 C12         3.2327   -3.0289   -0.8224 C.ar      1 <0>        -0.0073
     15 Cl1         2.6309   -2.3969   -2.3230 Cl        1 <0>        -0.0504
     16 Cl2         2.0773   -3.1780    3.0187 Cl        1 <0>        -0.0490
     17 C13        -2.4037   -2.7731   -0.1376 C.ar      1 <0>         0.2657
     18 N2         -3.5127   -2.0575   -0.1481 N.ar      1 <0>        -0.5628
     19 C14        -3.4850   -0.7433    0.0446 C.ar      1 <0>         0.6117
     20 N3         -2.3583   -0.0805    0.2560 N.ar      1 <0>        -0.5990
     21 N4         -4.6757   -0.0424    0.0236 N.pl3     1 <0>        -0.6192
     22 C15        -5.8891   -0.7288   -0.0804 C.ar      1 <0>         0.1333
     23 C16        -6.0350   -1.9780    0.5093 C.ar      1 <0>        -0.1033
     24 C17        -7.2351   -2.6533    0.4047 C.ar      1 <0>        -0.0997
     25 C18        -8.2907   -2.0876   -0.2865 C.ar      1 <0>        -0.0727
     26 C19        -8.1487   -0.8443   -0.8752 C.ar      1 <0>        -0.0989
     27 C20        -6.9534   -0.1607   -0.7687 C.ar      1 <0>        -0.1367
     28 C21        -9.5986   -2.8277   -0.3991 C.3       1 <0>        -0.0861
     29 C22       -10.5007   -2.4509    0.7779 C.3       1 <0>        -0.0854
     30 C23       -11.8285   -3.2024    0.6637 C.3       1 <0>        -0.1841
     31 C24       -12.7171   -2.8313    1.8229 C.2       1 <0>         0.4877
     32 O2        -12.3246   -2.0392    2.6626 O.co2     1 <0>        -0.6991
     33 O3        -13.8283   -3.3231    1.9211 O.co2     1 <0>        -0.7090
     34 H1          0.9636    1.7757    0.8589 H         1 <0>         0.0990
     35 H2         -0.4849    1.8921   -0.1690 H         1 <0>         0.0794
     36 H3         -0.6560    1.6395    1.5846 H         1 <0>         0.0800
     37 H4          0.0515   -3.8982   -0.0482 H         1 <0>         0.1490
     38 H5          4.5741   -4.4445    2.5025 H         1 <0>         0.1427
     39 H6          5.8656   -4.7262    0.4282 H         1 <0>         0.1438
     40 H7          5.0148   -3.8202   -1.6944 H         1 <0>         0.1424
     41 H8         -2.4351   -3.8410   -0.2954 H         1 <0>         0.1871
     42 H9         -4.6695    0.9259    0.0810 H         1 <0>         0.4248
     43 H10        -5.2107   -2.4207    1.0488 H         1 <0>         0.1314
     44 H11        -7.3491   -3.6246    0.8630 H         1 <0>         0.1259
     45 H12        -8.9750   -0.4054   -1.4147 H         1 <0>         0.1269
     46 H13        -6.8447    0.8124   -1.2246 H         1 <0>         0.1222
     47 H14       -10.0895   -2.5578   -1.3341 H         1 <0>         0.0671
     48 H15        -9.4110   -3.9013   -0.3839 H         1 <0>         0.0676
     49 H16       -10.0097   -2.7208    1.7129 H         1 <0>         0.0601
     50 H17       -10.6883   -1.3773    0.7627 H         1 <0>         0.0599
     51 H18       -12.3195   -2.9325   -0.2713 H         1 <0>         0.0555
     52 H19       -11.6409   -4.2760    0.6788 H         1 <0>         0.0557
@<TRIPOS>BOND
     1    1    2 1
     2    1   34 1
     3    1   35 1
     4    1   36 1
     5    2    7 am
     6    2    3 1
     7    3   20 ar
     8    3    4 ar
     9    4    5 1
    10    4   17 ar
    11    5    6 2
    12    5   37 1
    13    6    7 1
    14    6    9 1
    15    7    8 2
    16    9   14 ar
    17    9   10 ar
    18   10   11 ar
    19   10   16 1
    20   11   12 ar
    21   11   38 1
    22   12   13 ar
    23   12   39 1
    24   13   14 ar
    25   13   40 1
    26   14   15 1
    27   17   18 ar
    28   17   41 1
    29   18   19 ar
    30   19   20 ar
    31   19   21 1
    32   21   22 1
    33   21   42 1
    34   22   27 ar
    35   22   23 ar
    36   23   24 ar
    37   23   43 1
    38   24   25 ar
    39   24   44 1
    40   25   26 ar
    41   25   28 1
    42   26   27 ar
    43   26   45 1
    44   27   46 1
    45   28   29 1
    46   28   47 1
    47   28   48 1
    48   29   30 1
    49   29   49 1
    50   29   50 1
    51   30   31 1
    52   30   51 1
    53   30   52 1
    54   31   32 2
    55   31   33 1
@<TRIPOS>MOLECULE
CHEMBL510668
   59    64     0     0     0
SMALL
USER_CHARGES

@<TRIPOS>ATOM
      1 C1         -0.0167    1.3792    0.0096 C.ar      1 <0>        -0.1064
      2 C2          1.1685    2.0927    0.0021 C.ar      1 <0>        -0.1239
      3 C3          2.3774    1.4276   -0.0135 C.ar      1 <0>        -0.0972
      4 C4          2.4028    0.0333   -0.0212 C.ar      1 <0>        -0.0688
      5 C5          1.2047   -0.6805   -0.0131 C.ar      1 <0>        -0.0699
      6 C6          0.0021   -0.0041    0.0020 C.ar      1 <0>        -0.1186
      7 C7          3.6973   -0.6869   -0.0384 C.ar      1 <0>         0.0671
      8 C8          4.6754   -0.3384   -0.9678 C.ar      1 <0>        -0.1143
      9 C9          5.8922   -1.0065   -0.9938 C.ar      1 <0>         0.1777
     10 C10         6.1423   -2.0459   -0.0730 C.ar      1 <0>        -0.0342
     11 C11         7.4991   -2.5393   -0.3607 C.ar      1 <0>        -0.0957
     12 C12         8.2934   -3.5392    0.1999 C.ar      1 <0>        -0.0746
     13 C13         9.5594   -3.7717   -0.3037 C.ar      1 <0>         0.0777
     14 C14        10.0393   -3.0111   -1.3648 C.ar      1 <0>        -0.0958
     15 C15         9.2614   -2.0209   -1.9249 C.ar      1 <0>        -0.1239
     16 C16         7.9844   -1.7730   -1.4314 C.ar      1 <0>         0.1423
     17 N1          7.0072   -0.8611   -1.7955 N.pl3     1 <0>        -0.4964
     18 C17         7.1380    0.1182   -2.8772 C.3       1 <0>         0.1132
     19 C18         7.7289    1.4156   -2.3217 C.3       1 <0>        -0.1374
     20 C19         7.8655    2.4384   -3.4514 C.3       1 <0>         0.0585
     21 N2          8.4329    3.6841   -2.9181 N.3       1 <0>        -0.5365
     22 C20         7.5008    4.3292   -1.9820 C.3       1 <0>         0.0143
     23 C21         8.1541    5.5884   -1.4063 C.3       1 <0>         0.0623
     24 O1          8.5318    6.4562   -2.4784 O.3       1 <0>        -0.3844
     25 C22         9.4397    5.8602   -3.4089 C.3       1 <0>         0.0624
     26 C23         8.7994    4.6037   -4.0050 C.3       1 <0>         0.0177
     27 O2         10.3376   -4.7456    0.2396 O.3       1 <0>        -0.4931
     28 C24         5.1676   -2.4003    0.8608 C.ar      1 <0>        -0.0778
     29 C25         3.9391   -1.7132    0.8827 C.ar      1 <0>        -0.1657
     30 C26         3.1555   -2.3189    1.9736 C.2       1 <0>         0.5799
     31 O3          2.0310   -1.9966    2.3024 O.2       1 <0>        -0.4530
     32 N3          3.8925   -3.2886    2.5445 N.am      1 <0>        -0.6806
     33 C27         5.0881   -3.4048    1.9386 C.2       1 <0>         0.5786
     34 O4          5.9616   -4.1941    2.2386 O.2       1 <0>        -0.4557
     35 H1         -0.9604    1.9042    0.0260 H         1 <0>         0.1241
     36 H2          1.1476    3.1725    0.0082 H         1 <0>         0.1255
     37 H3          3.3020    1.9857   -0.0200 H         1 <0>         0.1236
     38 H4          1.2181   -1.7604   -0.0194 H         1 <0>         0.1215
     39 H5         -0.9264   -0.5557    0.0079 H         1 <0>         0.1257
     40 H6          4.4855    0.4570   -1.6732 H         1 <0>         0.1430
     41 H7          7.9210   -4.1292    1.0243 H         1 <0>         0.1471
     42 H8         11.0297   -3.1978   -1.7528 H         1 <0>         0.1393
     43 H9          9.6439   -1.4363   -2.7485 H         1 <0>         0.1322
     44 H10         7.7963   -0.2794   -3.6496 H         1 <0>         0.0955
     45 H11         6.1561    0.3202   -3.3051 H         1 <0>         0.0919
     46 H12         7.0707    1.8132   -1.5493 H         1 <0>         0.0720
     47 H13         8.7108    1.2137   -1.8938 H         1 <0>         0.0826
     48 H14         8.5238    2.0408   -4.2239 H         1 <0>         0.0808
     49 H15         6.8836    2.6404   -3.8794 H         1 <0>         0.0399
     50 H16         6.5864    4.6020   -2.5089 H         1 <0>         0.0447
     51 H17         7.2630    3.6397   -1.1720 H         1 <0>         0.0877
     52 H18         7.4456    6.1010   -0.7555 H         1 <0>         0.0994
     53 H19         9.0392    5.3102   -0.8342 H         1 <0>         0.0606
     54 H20         9.6610    6.5693   -4.2066 H         1 <0>         0.0999
     55 H21        10.3622    5.5898   -2.8951 H         1 <0>         0.0609
     56 H22         9.5096    4.1146   -4.6717 H         1 <0>         0.0879
     57 H23         7.9058    4.8809   -4.5642 H         1 <0>         0.0447
     58 H24        10.2282   -5.6129   -0.1739 H         1 <0>         0.3902
     59 H25         3.5977   -3.8372    3.2881 H         1 <0>         0.4315
@<TRIPOS>BOND
     1    1    6 ar
     2    1    2 ar
     3    1   35 1
     4    2    3 ar
     5    2   36 1
     6    3    4 ar
     7    3   37 1
     8    4    5 ar
     9    4    7 1
    10    5    6 ar
    11    5   38 1
    12    6   39 1
    13    7   29 ar
    14    7    8 ar
    15    8    9 ar
    16    8   40 1
    17    9   17 1
    18    9   10 ar
    19   10   11 1
    20   10   28 ar
    21   11   16 ar
    22   11   12 ar
    23   12   13 ar
    24   12   41 1
    25   13   14 ar
    26   13   27 1
    27   14   15 ar
    28   14   42 1
    29   15   16 ar
    30   15   43 1
    31   16   17 1
    32   17   18 1
    33   18   19 1
    34   18   44 1
    35   18   45 1
    36   19   20 1
    37   19   46 1
    38   19   47 1
    39   20   21 1
    40   20   48 1
    41   20   49 1
    42   21   26 1
    43   21   22 1
    44   22   23 1
    45   22   50 1
    46   22   51 1
    47   23   24 1
    48   23   52 1
    49   23   53 1
    50   24   25 1
    51   25   26 1
    52   25   54 1
    53   25   55 1
    54   26   56 1
    55   26   57 1
    56   27   58 1
    57   28   33 1
    58   28   29 ar
    59   29   30 1
    60   30   31 2
    61   30   32 am
    62   32   33 am
    63   32   59 1
    64   33   34 2
@<TRIPOS>MOLECULE
CHEMBL510668
   60    65     0     0     0
SMALL
USER_CHARGES

@<TRIPOS>ATOM
      1 C1         -0.0167    1.3792    0.0096 C.ar      1 <0>        -0.1019
      2 C2          1.1685    2.0927    0.0021 C.ar      1 <0>        -0.1247
      3 C3          2.3774    1.4276   -0.0135 C.ar      1 <0>        -0.0996
      4 C4          2.4028    0.0333   -0.0212 C.ar      1 <0>        -0.0751
      5 C5          1.2047   -0.6805   -0.0131 C.ar      1 <0>        -0.0680
      6 C6          0.0021   -0.0041    0.0020 C.ar      1 <0>        -0.1145
      7 C7          3.6973   -0.6869   -0.0384 C.ar      1 <0>         0.0724
      8 C8          4.6754   -0.3384   -0.9678 C.ar      1 <0>        -0.1191
      9 C9          5.8922   -1.0065   -0.9938 C.ar      1 <0>         0.1702
     10 C10         6.1423   -2.0459   -0.0730 C.ar      1 <0>        -0.0325
     11 C11         7.4991   -2.5393   -0.3607 C.ar      1 <0>        -0.0891
     12 C12         8.2934   -3.5392    0.1999 C.ar      1 <0>        -0.0739
     13 C13         9.5594   -3.7717   -0.3037 C.ar      1 <0>         0.0881
     14 C14        10.0393   -3.0111   -1.3648 C.ar      1 <0>        -0.0950
     15 C15         9.2614   -2.0209   -1.9249 C.ar      1 <0>        -0.1286
     16 C16         7.9844   -1.7730   -1.4314 C.ar      1 <0>         0.1320
     17 N1          7.0072   -0.8611   -1.7955 N.pl3     1 <0>        -0.5044
     18 C17         7.1380    0.1182   -2.8772 C.3       1 <0>         0.1218
     19 C18         7.7289    1.4156   -2.3217 C.3       1 <0>        -0.1764
     20 C19         7.8655    2.4384   -3.4514 C.3       1 <0>        -0.0059
     21 N2          8.4329    3.6841   -2.9181 N.4       1 <0>        -0.3853
     22 C20         7.4893    4.2835   -1.9645 C.3       1 <0>        -0.0494
     23 C21         8.0827    5.5810   -1.4102 C.3       1 <0>         0.0361
     24 O1          8.3695    6.4691   -2.4940 O.3       1 <0>        -0.3553
     25 C22         9.2669    5.9206   -3.4633 C.3       1 <0>         0.0351
     26 C23         8.6756    4.6237   -4.0215 C.3       1 <0>        -0.0433
     27 O2         10.3376   -4.7456    0.2396 O.3       1 <0>        -0.4922
     28 C24         5.1676   -2.4003    0.8608 C.ar      1 <0>        -0.0730
     29 C25         3.9391   -1.7132    0.8827 C.ar      1 <0>        -0.1573
     30 C26         3.1555   -2.3189    1.9736 C.2       1 <0>         0.5767
     31 O3          2.0310   -1.9966    2.3024 O.2       1 <0>        -0.4458
     32 N3          3.8925   -3.2886    2.5445 N.am      1 <0>        -0.6787
     33 C27         5.0881   -3.4048    1.9386 C.2       1 <0>         0.5760
     34 O4          5.9616   -4.1941    2.2386 O.2       1 <0>        -0.4507
     35 H1         -0.9604    1.9042    0.0260 H         1 <0>         0.1270
     36 H2          1.1476    3.1725    0.0082 H         1 <0>         0.1257
     37 H3          3.3020    1.9857   -0.0200 H         1 <0>         0.1193
     38 H4          1.2181   -1.7604   -0.0194 H         1 <0>         0.1229
     39 H5         -0.9264   -0.5557    0.0079 H         1 <0>         0.1291
     40 H6          4.4855    0.4570   -1.6732 H         1 <0>         0.1411
     41 H7          7.9210   -4.1292    1.0243 H         1 <0>         0.1505
     42 H8         11.0297   -3.1978   -1.7528 H         1 <0>         0.1418
     43 H9          9.6439   -1.4363   -2.7485 H         1 <0>         0.1286
     44 H10         7.7963   -0.2794   -3.6496 H         1 <0>         0.1036
     45 H11         6.1561    0.3202   -3.3051 H         1 <0>         0.1022
     46 H12         7.0707    1.8132   -1.5493 H         1 <0>         0.0960
     47 H13         8.7108    1.2137   -1.8938 H         1 <0>         0.0976
     48 H14         8.5238    2.0408   -4.2239 H         1 <0>         0.1379
     49 H15         6.8836    2.6404   -3.8794 H         1 <0>         0.1359
     50 H16         6.5491    4.5010   -2.4713 H         1 <0>         0.1412
     51 H17         7.3086    3.5873   -1.1455 H         1 <0>         0.1421
     52 H18         7.3665    6.0497   -0.7352 H         1 <0>         0.1429
     53 H19         9.0023    5.3585   -0.8688 H         1 <0>         0.0816
     54 H20         9.4078    6.6350   -4.2744 H         1 <0>         0.1433
     55 H21        10.2270    5.7098   -2.9923 H         1 <0>         0.0817
     56 H22         9.3756    4.1801   -4.7295 H         1 <0>         0.1439
     57 H23         7.7350    4.8411   -4.5275 H         1 <0>         0.1404
     58 H24        10.2282   -5.6129   -0.1739 H         1 <0>         0.3960
     59 H25         3.5977   -3.8372    3.2881 H         1 <0>         0.4351
     60 H26         9.3035    3.4836   -2.4492 H         1 <0>         0.4242
@<TRIPOS>BOND
     1    1    6 ar
     2    1    2 ar
     3    1   35 1
     4    2    3 ar
     5    2   36 1
     6    3    4 ar
     7    3   37 1
     8    4    5 ar
     9    4    7 1
    10    5    6 ar
    11    5   38 1
    12    6   39 1
    13    7   29 ar
    14    7    8 ar
    15    8    9 ar
    16    8   40 1
    17    9   17 1
    18    9   10 ar
    19   10   11 1
    20   10   28 ar
    21   11   16 ar
    22   11   12 ar
    23   12   13 ar
    24   12   41 1
    25   13   14 ar
    26   13   27 1
    27   14   15 ar
    28   14   42 1
    29   15   16 ar
    30   15   43 1
    31   16   17 1
    32   17   18 1
    33   18   19 1
    34   18   44 1
    35   18   45 1
    36   19   20 1
    37   19   46 1
    38   19   47 1
    39   20   21 1
    40   20   48 1
    41   20   49 1
    42   21   26 1
    43   21   22 1
    44   21   60 1
    45   22   23 1
    46   22   50 1
    47   22   51 1
    48   23   24 1
    49   23   52 1
    50   23   53 1
    51   24   25 1
    52   25   26 1
    53   25   54 1
    54   25   55 1
    55   26   56 1
    56   26   57 1
    57   27   58 1
    58   28   33 1
    59   28   29 ar
    60   29   30 1
    61   30   31 2
    62   30   32 am
    63   32   33 am
    64   32   59 1
    65   33   34 2
@<TRIPOS>MOLECULE
CHEMBL474111
   62    67     0     0     0
SMALL
USER_CHARGES

@<TRIPOS>ATOM
      1 C1         -0.0166    1.3753    0.0096 C.ar      1 <0>        -0.1156
      2 C2          1.1702    2.0869    0.0021 C.ar      1 <0>        -0.0954
      3 C3          2.3823    1.4213   -0.0135 C.ar      1 <0>        -0.1088
      4 C4          2.4148    0.0403   -0.0213 C.ar      1 <0>        -0.0004
      5 C5          1.2208   -0.6824   -0.0133 C.ar      1 <0>        -0.0547
      6 C6          0.0021   -0.0041    0.0020 C.ar      1 <0>        -0.0860
      7 C7          1.2477   -2.1632   -0.0220 C.ar      1 <0>         0.0545
      8 C8          0.7442   -2.8624   -1.1180 C.ar      1 <0>        -0.1011
      9 C9          0.7642   -4.2497   -1.1380 C.ar      1 <0>         0.1668
     10 C10         1.2980   -4.9604   -0.0415 C.ar      1 <0>        -0.0158
     11 C11         1.1726   -6.3892   -0.3703 C.ar      1 <0>        -0.1303
     12 C12         1.5169   -7.5611    0.3061 C.ar      1 <0>        -0.0335
     13 C13         1.2670   -8.7871   -0.2757 C.ar      1 <0>         0.0549
     14 C14         0.6720   -8.8554   -1.5365 C.ar      1 <0>         0.1586
     15 C15         0.3287   -7.6993   -2.2126 C.ar      1 <0>        -0.2280
     16 C16         0.5743   -6.4567   -1.6382 C.ar      1 <0>         0.1841
     17 N1          0.3379   -5.1653   -2.0804 N.pl3     1 <0>        -0.4953
     18 C17        -0.2774   -4.8198   -3.3643 C.3       1 <0>         0.1131
     19 C18         0.8120   -4.6714   -4.4283 C.3       1 <0>         0.0575
     20 O1          0.2119   -4.3345   -5.6807 O.3       1 <0>        -0.5682
     21 O2          0.4287  -10.0665   -2.1035 O.3       1 <0>        -0.2938
     22 C19        -0.1824  -10.0671   -3.3953 C.3       1 <0>         0.0586
     23 C20        -0.3759  -11.5096   -3.8673 C.3       1 <0>        -0.1367
     24 C21        -1.0301  -11.5102   -5.2503 C.3       1 <0>         0.1109
     25 N2         -1.2154  -12.8914   -5.7023 N.pl3     1 <0>        -0.4502
     26 C22        -0.3120  -13.6216   -6.4161 C.2       1 <0>        -0.0167
     27 C23        -0.8404  -14.8414   -6.6423 C.2       1 <0>        -0.1996
     28 C24        -2.1168  -14.8652   -6.0463 C.2       1 <0>        -0.1995
     29 C25        -2.3174  -13.6610   -5.4736 C.2       1 <0>        -0.0171
     30 O3          1.6016   -9.9312    0.3805 O.3       1 <0>        -0.4788
     31 C26         1.8041   -4.2676    1.0594 C.ar      1 <0>        -0.0864
     32 C27         1.7839   -2.8593    1.0677 C.ar      1 <0>        -0.1459
     33 C28         2.3884   -2.4533    2.3483 C.2       1 <0>         0.5790
     34 O4          2.5449   -1.3095    2.7274 O.2       1 <0>        -0.4469
     35 N3          2.7377   -3.5602    3.0281 N.am      1 <0>        -0.6804
     36 C29         2.4175   -4.6703    2.3387 C.2       1 <0>         0.5800
     37 O5          2.6140   -5.8127    2.7027 O.2       1 <0>        -0.4567
     38 Cl1         3.9369   -0.7942   -0.0415 Cl        1 <0>        -0.0614
     39 H1         -0.9598    1.9012    0.0260 H         1 <0>         0.1337
     40 H2          1.1498    3.1667    0.0081 H         1 <0>         0.1349
     41 H3          3.3052    1.9822   -0.0201 H         1 <0>         0.1370
     42 H4         -0.9252   -0.5577    0.0083 H         1 <0>         0.1347
     43 H5          0.3351   -2.3202   -1.9577 H         1 <0>         0.1454
     44 H6          1.9776   -7.5082    1.2814 H         1 <0>         0.1569
     45 H7         -0.1306   -7.7611   -3.1881 H         1 <0>         0.1375
     46 H8         -0.9688   -5.6089   -3.6599 H         1 <0>         0.1006
     47 H9         -0.8197   -3.8795   -3.2660 H         1 <0>         0.1023
     48 H10         1.5035   -3.8823   -4.1328 H         1 <0>         0.0556
     49 H11         1.3544   -5.6117   -4.5267 H         1 <0>         0.0538
     50 H12         0.8450   -4.2244   -6.4033 H         1 <0>         0.3912
     51 H13        -1.1509   -9.5701   -3.3393 H         1 <0>         0.0685
     52 H14         0.4579   -9.5369   -4.1003 H         1 <0>         0.0681
     53 H15         0.5926  -12.0065   -3.9233 H         1 <0>         0.0848
     54 H16        -1.0161  -12.0398   -3.1622 H         1 <0>         0.0843
     55 H17        -1.9986  -11.0132   -5.1943 H         1 <0>         0.0926
     56 H18        -0.3899  -10.9800   -5.9554 H         1 <0>         0.0925
     57 H19         0.6591  -13.2814   -6.7443 H         1 <0>         0.1600
     58 H20        -0.3713  -15.6513   -7.1813 H         1 <0>         0.1354
     59 H21        -2.8060  -15.6967   -6.0445 H         1 <0>         0.1354
     60 H22        -3.1996  -13.3577   -4.9295 H         1 <0>         0.1600
     61 H23         0.9000  -10.2786    0.9481 H         1 <0>         0.3877
     62 H24         3.1569   -3.5585    3.9029 H         1 <0>         0.4318
@<TRIPOS>BOND
     1    1    6 ar
     2    1    2 ar
     3    1   39 1
     4    2    3 ar
     5    2   40 1
     6    3    4 ar
     7    3   41 1
     8    4    5 ar
     9    4   38 1
    10    5    6 ar
    11    5    7 1
    12    6   42 1
    13    7   32 ar
    14    7    8 ar
    15    8    9 ar
    16    8   43 1
    17    9   17 1
    18    9   10 ar
    19   10   11 1
    20   10   31 ar
    21   11   16 ar
    22   11   12 ar
    23   12   13 ar
    24   12   44 1
    25   13   14 ar
    26   13   30 1
    27   14   15 ar
    28   14   21 1
    29   15   16 ar
    30   15   45 1
    31   16   17 1
    32   17   18 1
    33   18   19 1
    34   18   46 1
    35   18   47 1
    36   19   20 1
    37   19   48 1
    38   19   49 1
    39   20   50 1
    40   21   22 1
    41   22   23 1
    42   22   51 1
    43   22   52 1
    44   23   24 1
    45   23   53 1
    46   23   54 1
    47   24   25 1
    48   24   55 1
    49   24   56 1
    50   25   29 1
    51   25   26 1
    52   26   27 2
    53   26   57 1
    54   27   28 1
    55   27   58 1
    56   28   29 2
    57   28   59 1
    58   29   60 1
    59   30   61 1
    60   31   36 1
    61   31   32 ar
    62   32   33 1
    63   33   34 2
    64   33   35 am
    65   35   36 am
    66   35   62 1
    67   36   37 2
@<TRIPOS>MOLECULE
CHEMBL471329
   50    55     0     0     0
SMALL
USER_CHARGES

@<TRIPOS>ATOM
      1 C1         -0.0166    1.3753    0.0096 C.ar      1 <0>        -0.1172
      2 C2          1.1702    2.0869    0.0021 C.ar      1 <0>        -0.0984
      3 C3          2.3823    1.4213   -0.0135 C.ar      1 <0>        -0.1094
      4 C4          2.4147    0.0403   -0.0213 C.ar      1 <0>         0.0014
      5 C5          1.2208   -0.6823   -0.0133 C.ar      1 <0>        -0.0492
      6 C6          0.0021   -0.0041    0.0020 C.ar      1 <0>        -0.0861
      7 C7          1.2476   -2.1633   -0.0220 C.ar      1 <0>         0.0545
      8 C8          0.7443   -2.8623   -1.1176 C.ar      1 <0>        -0.1006
      9 C9          0.7641   -4.2503   -1.1370 C.ar      1 <0>         0.1792
     10 C10         1.2978   -4.9603   -0.0406 C.ar      1 <0>        -0.0309
     11 C11         1.1711   -6.3898   -0.3691 C.ar      1 <0>        -0.0998
     12 C12         1.5141   -7.5614    0.3052 C.ar      1 <0>        -0.0748
     13 C13         1.2616   -8.7878   -0.2800 C.ar      1 <0>         0.0707
     14 C14         0.6683   -8.8531   -1.5363 C.ar      1 <0>        -0.0961
     15 C15         0.3265   -7.7006   -2.2102 C.ar      1 <0>        -0.1210
     16 C16         0.5722   -6.4571   -1.6364 C.ar      1 <0>         0.1479
     17 N1          0.3368   -5.1656   -2.0786 N.pl3     1 <0>        -0.4903
     18 C17        -0.2788   -4.8200   -3.3623 C.3       1 <0>         0.1102
     19 C18         0.8102   -4.6727   -4.4269 C.3       1 <0>        -0.1278
     20 C19         0.1673   -4.3117   -5.7675 C.3       1 <0>         0.0059
     21 C20         1.2399   -4.1666   -6.8161 C.2       1 <0>         0.0483
     22 N2          1.8964   -3.0583   -7.1268 N.2       1 <0>        -0.3868
     23 N3          2.7272   -3.3486   -8.0690 N.2       1 <0>        -0.1980
     24 N4          2.6135   -4.5981   -8.3582 N.2       1 <0>        -0.1983
     25 N5          1.7122   -5.1241   -7.6010 N.2       1 <0>        -0.3876
     26 O1          1.5943   -9.9330    0.3737 O.3       1 <0>        -0.4935
     27 C21         1.8044   -4.2673    1.0595 C.ar      1 <0>        -0.0840
     28 C22         1.7840   -2.8596    1.0679 C.ar      1 <0>        -0.1576
     29 C23         2.3884   -2.4533    2.3485 C.2       1 <0>         0.5817
     30 O2          2.5449   -1.3094    2.7274 O.2       1 <0>        -0.4533
     31 N6          2.7379   -3.5599    3.0287 N.am      1 <0>        -0.6821
     32 C24         2.4184   -4.6701    2.3393 C.2       1 <0>         0.5811
     33 O3          2.6139   -5.8124    2.7038 O.2       1 <0>        -0.4606
     34 Cl1         3.9368   -0.7943   -0.0415 Cl        1 <0>        -0.0600
     35 H1         -0.9598    1.9012    0.0260 H         1 <0>         0.1317
     36 H2          1.1498    3.1667    0.0081 H         1 <0>         0.1326
     37 H3          3.3052    1.9822   -0.0201 H         1 <0>         0.1354
     38 H4         -0.9252   -0.5577    0.0083 H         1 <0>         0.1344
     39 H5          0.3356   -2.3202   -1.9575 H         1 <0>         0.1480
     40 H6          1.9754   -7.5105    1.2804 H         1 <0>         0.1449
     41 H7          0.4742   -9.8149   -1.9876 H         1 <0>         0.1380
     42 H8         -0.1334   -7.7627   -3.1854 H         1 <0>         0.1358
     43 H9         -0.9710   -5.6085   -3.6574 H         1 <0>         0.0952
     44 H10        -0.8204   -3.8791   -3.2640 H         1 <0>         0.0934
     45 H11         1.5024   -3.8841   -4.1319 H         1 <0>         0.0700
     46 H12         1.3518   -5.6135   -4.5253 H         1 <0>         0.0707
     47 H13        -0.5249   -5.1003   -6.0626 H         1 <0>         0.0690
     48 H14        -0.3743   -3.3709   -5.6692 H         1 <0>         0.0690
     49 H15         0.8923  -10.2803    0.9408 H         1 <0>         0.3858
     50 H16         3.1568   -3.5579    3.9036 H         1 <0>         0.4286
@<TRIPOS>BOND
     1    1    6 ar
     2    1    2 ar
     3    1   35 1
     4    2    3 ar
     5    2   36 1
     6    3    4 ar
     7    3   37 1
     8    4    5 ar
     9    4   34 1
    10    5    6 ar
    11    5    7 1
    12    6   38 1
    13    7   28 ar
    14    7    8 ar
    15    8    9 ar
    16    8   39 1
    17    9   17 1
    18    9   10 ar
    19   10   11 1
    20   10   27 ar
    21   11   16 ar
    22   11   12 ar
    23   12   13 ar
    24   12   40 1
    25   13   14 ar
    26   13   26 1
    27   14   15 ar
    28   14   41 1
    29   15   16 ar
    30   15   42 1
    31   16   17 1
    32   17   18 1
    33   18   19 1
    34   18   43 1
    35   18   44 1
    36   19   20 1
    37   19   45 1
    38   19   46 1
    39   20   21 1
    40   20   47 1
    41   20   48 1
    42   21   25 2
    43   21   22 1
    44   22   23 1
    45   23   24 2
    46   24   25 1
    47   26   49 1
    48   27   32 1
    49   27   28 ar
    50   28   29 1
    51   29   30 2
    52   29   31 am
    53   31   32 am
    54   31   50 1
    55   32   33 2
@<TRIPOS>MOLECULE
CHEMBL472687
   58    63     0     0     0
SMALL
USER_CHARGES

@<TRIPOS>ATOM
      1 C1         -0.0178    1.4608    0.0101 C.3       1 <0>         0.0781
      2 N1          0.0021   -0.0041    0.0020 N.pl3     1 <0>        -0.5012
      3 C2          0.0074   -0.7868   -1.1362 C.ar      1 <0>         0.1671
      4 C3         -0.0033   -0.4622   -2.4857 C.ar      1 <0>        -0.1012
      5 C4          0.0054   -1.4643   -3.4545 C.ar      1 <0>         0.0536
      6 C5          0.0255   -2.8109   -3.0713 C.ar      1 <0>        -0.1476
      7 C6          0.0369   -3.1507   -1.7050 C.ar      1 <0>        -0.0859
      8 C7          0.0277   -2.1412   -0.7407 C.ar      1 <0>        -0.0187
      9 C8          0.0345   -2.1458    0.7308 C.ar      1 <0>        -0.1321
     10 C9          0.0242   -0.8014    1.1348 C.ar      1 <0>         0.1836
     11 C10         0.0335   -0.4963    2.4912 C.ar      1 <0>        -0.2280
     12 C11         0.0566   -1.5115    3.4301 C.ar      1 <0>         0.1578
     13 C12         0.0708   -2.8474    3.0272 C.ar      1 <0>         0.0535
     14 C13         0.0521   -3.1652    1.6841 C.ar      1 <0>        -0.0337
     15 O1          0.0936   -3.8382    3.9596 O.3       1 <0>        -0.4789
     16 O2          0.0661   -1.2059    4.7545 O.3       1 <0>        -0.2942
     17 C14         0.0511    0.1805    5.1006 C.3       1 <0>         0.0588
     18 C15         0.0647    0.3262    6.6235 C.3       1 <0>        -0.1370
     19 C16         0.0486    1.8106    6.9940 C.3       1 <0>         0.1111
     20 N2          0.0616    1.9501    8.4523 N.pl3     1 <0>        -0.4503
     21 C17        -1.0391    2.0050    9.2549 C.2       1 <0>        -0.0172
     22 C18        -0.6242    2.1351   10.5314 C.2       1 <0>        -0.1995
     23 C19         0.7844    2.1615   10.5163 C.2       1 <0>        -0.1996
     24 C20         1.1767    2.0405    9.2317 C.2       1 <0>        -0.0167
     25 C21         0.0571   -4.6245   -1.6549 C.2       1 <0>         0.5799
     26 O3          0.0709   -5.3000   -0.6450 O.2       1 <0>        -0.4571
     27 N3          0.0572   -5.0954   -2.9150 N.am      1 <0>        -0.6805
     28 C22         0.0391   -4.0876   -3.8059 C.2       1 <0>         0.5791
     29 O4          0.0343   -4.2101   -5.0149 O.2       1 <0>        -0.4477
     30 C23        -0.0071   -1.1042   -4.8911 C.ar      1 <0>        -0.0540
     31 C24         1.0764   -0.4295   -5.4535 C.ar      1 <0>        -0.0862
     32 C25         1.0592   -0.0972   -6.7924 C.ar      1 <0>        -0.1159
     33 C26        -0.0299   -0.4316   -7.5778 C.ar      1 <0>        -0.0958
     34 C27        -1.1080   -1.1000   -7.0271 C.ar      1 <0>        -0.1090
     35 C28        -1.1007   -1.4436   -5.6891 C.ar      1 <0>        -0.0002
     36 Cl1        -2.4512   -2.2896   -5.0005 Cl        1 <0>        -0.0613
     37 H1          1.0048    1.8381    0.0023 H         1 <0>         0.0751
     38 H2         -0.5450    1.8219   -0.8730 H         1 <0>         0.0877
     39 H3         -0.5280    1.8123    0.9069 H         1 <0>         0.0857
     40 H4         -0.0188    0.5747   -2.7874 H         1 <0>         0.1451
     41 H5          0.0230    0.5349    2.8122 H         1 <0>         0.1372
     42 H6          0.0647   -4.1989    1.3717 H         1 <0>         0.1566
     43 H7         -0.7831   -4.1366    4.2378 H         1 <0>         0.3871
     44 H8          0.9304    0.6692    4.6809 H         1 <0>         0.0684
     45 H9         -0.8494    0.6454    4.6991 H         1 <0>         0.0678
     46 H10        -0.8146   -0.1626    7.0432 H         1 <0>         0.0841
     47 H11         0.9651   -0.1388    7.0250 H         1 <0>         0.0849
     48 H12         0.9279    2.2993    6.5744 H         1 <0>         0.0926
     49 H13        -0.8518    2.2755    6.5926 H         1 <0>         0.0923
     50 H14        -2.0663    1.9538    8.9252 H         1 <0>         0.1600
     51 H15        -1.2555    2.2061   11.4047 H         1 <0>         0.1354
     52 H16         1.4313    2.2563   11.3759 H         1 <0>         0.1354
     53 H17         2.1978    2.0210    8.8807 H         1 <0>         0.1602
     54 H18         0.0687   -6.0365   -3.1500 H         1 <0>         0.4316
     55 H19         1.9271   -0.1675   -4.8420 H         1 <0>         0.1345
     56 H20         1.8977    0.4255   -7.2284 H         1 <0>         0.1334
     57 H21        -0.0382   -0.1690   -8.6254 H         1 <0>         0.1347
     58 H22        -1.9554   -1.3576   -7.6452 H         1 <0>         0.1369
@<TRIPOS>BOND
     1    1    2 1
     2    1   37 1
     3    1   38 1
     4    1   39 1
     5    2   10 1
     6    2    3 1
     7    3    8 ar
     8    3    4 ar
     9    4    5 ar
    10    4   40 1
    11    5    6 ar
    12    5   30 1
    13    6   28 1
    14    6    7 ar
    15    7    8 ar
    16    7   25 1
    17    8    9 1
    18    9   14 ar
    19    9   10 ar
    20   10   11 ar
    21   11   12 ar
    22   11   41 1
    23   12   13 ar
    24   12   16 1
    25   13   14 ar
    26   13   15 1
    27   14   42 1
    28   15   43 1
    29   16   17 1
    30   17   18 1
    31   17   44 1
    32   17   45 1
    33   18   19 1
    34   18   46 1
    35   18   47 1
    36   19   20 1
    37   19   48 1
    38   19   49 1
    39   20   24 1
    40   20   21 1
    41   21   22 2
    42   21   50 1
    43   22   23 1
    44   22   51 1
    45   23   24 2
    46   23   52 1
    47   24   53 1
    48   25   26 2
    49   25   27 am
    50   27   28 am
    51   27   54 1
    52   28   29 2
    53   30   35 ar
    54   30   31 ar
    55   31   32 ar
    56   31   55 1
    57   32   33 ar
    58   32   56 1
    59   33   34 ar
    60   33   57 1
    61   34   35 ar
    62   34   58 1
    63   35   36 1
@<TRIPOS>MOLECULE
CHEMBL469822
   65    70     0     0     0
SMALL
USER_CHARGES

@<TRIPOS>ATOM
      1 C1         -0.0166    1.3753    0.0096 C.ar      1 <0>        -0.1154
      2 C2          1.1702    2.0869    0.0021 C.ar      1 <0>        -0.0947
      3 C3          2.3823    1.4214   -0.0131 C.ar      1 <0>        -0.1088
      4 C4          2.4148    0.0403   -0.0213 C.ar      1 <0>         0.0004
      5 C5          1.2208   -0.6824   -0.0138 C.ar      1 <0>        -0.0575
      6 C6          0.0021   -0.0041    0.0020 C.ar      1 <0>        -0.0850
      7 C7          1.2478   -2.1631   -0.0225 C.ar      1 <0>         0.0806
      8 C8          0.7450   -2.8635   -1.1178 C.ar      1 <0>        -0.1354
      9 C9          0.7632   -4.2513   -1.1427 C.ar      1 <0>         0.2142
     10 C10         1.3104   -4.9636   -0.0514 C.ar      1 <0>        -0.0394
     11 C11         1.2119   -6.3866   -0.3877 C.2       1 <0>        -0.0548
     12 C12         1.6504   -7.4977    0.2170 C.2       1 <0>        -0.1389
     13 C13         1.4588   -8.8124   -0.5024 C.3       1 <0>         0.3453
     14 C14         0.1765   -8.8408   -1.3187 C.3       1 <0>         0.1714
     15 C15        -0.0070   -7.5971   -2.1537 C.2       1 <0>        -0.2089
     16 C16         0.4544   -6.4413   -1.6722 C.2       1 <0>         0.1762
     17 N1          0.3164   -5.1421   -2.1113 N.pl3     1 <0>        -0.5249
     18 C17        -0.2260   -4.7546   -3.4159 C.3       1 <0>         0.1197
     19 C18         0.9109   -4.6698   -4.4362 C.3       1 <0>         0.0537
     20 O1          1.4736   -5.9688   -4.6314 O.3       1 <0>        -0.5628
     21 O2         -0.9346   -8.9680   -0.4291 O.3       1 <0>        -0.3557
     22 C19        -2.0529   -9.6577   -0.9908 C.3       1 <0>         0.0674
     23 C20        -3.1772   -9.7344    0.0441 C.3       1 <0>        -0.1339
     24 C21        -4.3746  -10.4729   -0.5573 C.3       1 <0>         0.1094
     25 N2         -5.4510  -10.5463    0.4336 N.pl3     1 <0>        -0.4483
     26 C22        -5.6245  -11.5449    1.3456 C.2       1 <0>        -0.0154
     27 C23        -6.7193  -11.2601    2.0795 C.2       1 <0>        -0.2017
     28 C24        -7.2410  -10.0411    1.6032 C.2       1 <0>        -0.2015
     29 C25        -6.4416   -9.6244    0.6002 C.2       1 <0>        -0.0172
     30 O3          1.4179   -9.8665    0.4616 O.3       1 <0>        -0.5513
     31 O4          2.5690   -9.0290   -1.3757 O.3       1 <0>        -0.5546
     32 C26         1.8078   -4.2698    1.0513 C.ar      1 <0>        -0.0762
     33 C27         1.7830   -2.8601    1.0663 C.ar      1 <0>        -0.1695
     34 C28         2.3811   -2.4584    2.3494 C.2       1 <0>         0.5806
     35 O5          2.5305   -1.3155    2.7350 O.2       1 <0>        -0.4492
     36 N3          2.7344   -3.5668    3.0247 N.am      1 <0>        -0.6791
     37 C29         2.4221   -4.6756    2.3298 C.2       1 <0>         0.5804
     38 O6          2.6249   -5.8186    2.6886 O.2       1 <0>        -0.4604
     39 Cl1         3.9370   -0.7941   -0.0415 Cl        1 <0>        -0.0613
     40 H1         -0.9598    1.9011    0.0260 H         1 <0>         0.1341
     41 H2          1.1498    3.1667    0.0077 H         1 <0>         0.1353
     42 H3          3.3052    1.9823   -0.0189 H         1 <0>         0.1373
     43 H4         -0.9252   -0.5577    0.0083 H         1 <0>         0.1350
     44 H5          0.3363   -2.3200   -1.9568 H         1 <0>         0.1446
     45 H6          2.1253   -7.4555    1.1861 H         1 <0>         0.1542
     46 H7          0.1980   -9.7081   -1.9785 H         1 <0>         0.0886
     47 H8         -0.4985   -7.6413   -3.1143 H         1 <0>         0.1353
     48 H9         -0.9528   -5.4984   -3.7427 H         1 <0>         0.0982
     49 H10        -0.7129   -3.7829   -3.3328 H         1 <0>         0.1033
     50 H11         0.5220   -4.2962   -5.3834 H         1 <0>         0.0641
     51 H12         1.6807   -3.9922   -4.0669 H         1 <0>         0.0515
     52 H13         2.2017   -5.9905   -5.2673 H         1 <0>         0.3835
     53 H14        -2.4058   -9.1211   -1.8715 H         1 <0>         0.0527
     54 H15        -1.7522  -10.6659   -1.2760 H         1 <0>         0.0556
     55 H16        -2.8243  -10.2710    0.9248 H         1 <0>         0.0811
     56 H17        -3.4779   -8.7262    0.3292 H         1 <0>         0.0779
     57 H18        -4.7274   -9.9362   -1.4380 H         1 <0>         0.0904
     58 H19        -4.0738  -11.4810   -0.8425 H         1 <0>         0.0918
     59 H20        -4.9940  -12.4143    1.4601 H         1 <0>         0.1599
     60 H21        -7.1223  -11.8568    2.8845 H         1 <0>         0.1344
     61 H22        -8.1173   -9.5316    1.9759 H         1 <0>         0.1341
     62 H23        -6.5660   -8.7180    0.0264 H         1 <0>         0.1586
     63 H24         2.2204   -9.9422    0.9959 H         1 <0>         0.3829
     64 H25         3.4231   -9.0670   -0.9240 H         1 <0>         0.3868
     65 H26         3.1509   -3.5668    3.9007 H         1 <0>         0.4316
@<TRIPOS>BOND
     1    1    6 ar
     2    1    2 ar
     3    1   40 1
     4    2    3 ar
     5    2   41 1
     6    3    4 ar
     7    3   42 1
     8    4    5 ar
     9    4   39 1
    10    5    6 ar
    11    5    7 1
    12    6   43 1
    13    7   33 ar
    14    7    8 ar
    15    8    9 ar
    16    8   44 1
    17    9   17 1
    18    9   10 ar
    19   10   11 1
    20   10   32 ar
    21   11   16 1
    22   11   12 2
    23   12   13 1
    24   12   45 1
    25   13   14 1
    26   13   30 1
    27   13   31 1
    28   14   15 1
    29   14   21 1
    30   14   46 1
    31   15   16 2
    32   15   47 1
    33   16   17 1
    34   17   18 1
    35   18   19 1
    36   18   48 1
    37   18   49 1
    38   19   20 1
    39   19   50 1
    40   19   51 1
    41   20   52 1
    42   21   22 1
    43   22   23 1
    44   22   53 1
    45   22   54 1
    46   23   24 1
    47   23   55 1
    48   23   56 1
    49   24   25 1
    50   24   57 1
    51   24   58 1
    52   25   29 1
    53   25   26 1
    54   26   27 2
    55   26   59 1
    56   27   28 1
    57   27   60 1
    58   28   29 2
    59   28   61 1
    60   29   62 1
    61   30   63 1
    62   31   64 1
    63   32   37 1
    64   32   33 ar
    65   33   34 1
    66   34   35 2
    67   34   36 am
    68   36   37 am
    69   36   65 1
    70   37   38 2
@<TRIPOS>MOLECULE
CHEMBL469822
   65    70     0     0     0
SMALL
USER_CHARGES

@<TRIPOS>ATOM
      1 C1         -0.0166    1.3753    0.0096 C.ar      1 <0>        -0.1159
      2 C2          1.1702    2.0869    0.0021 C.ar      1 <0>        -0.0947
      3 C3          2.3823    1.4214   -0.0131 C.ar      1 <0>        -0.1088
      4 C4          2.4148    0.0403   -0.0213 C.ar      1 <0>         0.0007
      5 C5          1.2208   -0.6824   -0.0138 C.ar      1 <0>        -0.0578
      6 C6          0.0021   -0.0041    0.0020 C.ar      1 <0>        -0.0853
      7 C7          1.2478   -2.1631   -0.0225 C.ar      1 <0>         0.0810
      8 C8          0.7451   -2.8635   -1.1178 C.ar      1 <0>        -0.1363
      9 C9          0.7619   -4.2514   -1.1421 C.ar      1 <0>         0.2155
     10 C10         1.2820   -4.9642   -0.0380 C.ar      1 <0>        -0.0401
     11 C11         1.1336   -6.3882   -0.3507 C.2       1 <0>        -0.0538
     12 C12         1.3602   -7.5037    0.3541 C.2       1 <0>        -0.1418
     13 C13         0.9709   -8.8226   -0.2719 C.3       1 <0>         0.3445
     14 C14         1.1549   -8.8204   -1.7810 C.3       1 <0>         0.1703
     15 C15         0.5841   -7.5847   -2.4330 C.2       1 <0>        -0.1963
     16 C16         0.6239   -6.4377   -1.7523 C.2       1 <0>         0.1655
     17 N1          0.3278   -5.1419   -2.1167 N.pl3     1 <0>        -0.5245
     18 C17        -0.3496   -4.7572   -3.3574 C.3       1 <0>         0.1196
     19 C18         0.6907   -4.5191   -4.4538 C.3       1 <0>         0.0545
     20 O1          1.3578   -5.7471   -4.7523 O.3       1 <0>        -0.5627
     21 O2          2.5511   -8.8953   -2.0762 O.3       1 <0>        -0.3534
     22 C19         2.8501   -9.5555   -3.3078 C.3       1 <0>         0.0684
     23 C20         4.3652   -9.5772   -3.5200 C.3       1 <0>        -0.1329
     24 C21         4.6854  -10.2841   -4.8386 C.3       1 <0>         0.1099
     25 N2          6.1361  -10.3048   -5.0418 N.pl3     1 <0>        -0.4480
     26 C22         6.8625   -9.3443   -5.6810 C.2       1 <0>        -0.0168
     27 C23         8.1586   -9.7165   -5.6668 C.2       1 <0>        -0.2019
     28 C24         8.2351  -10.9521   -4.9941 C.2       1 <0>        -0.2019
     29 C25         6.9837  -11.2850   -4.6177 C.2       1 <0>        -0.0155
     30 O3          1.7772   -9.8591    0.2917 O.3       1 <0>        -0.5506
     31 O4         -0.4004   -9.0908    0.0274 O.3       1 <0>        -0.5575
     32 C26         1.7943   -4.2701    1.0577 C.ar      1 <0>        -0.0759
     33 C27         1.7830   -2.8601    1.0663 C.ar      1 <0>        -0.1703
     34 C28         2.3923   -2.4582    2.3441 C.2       1 <0>         0.5806
     35 O5          2.5583   -1.3149    2.7217 O.2       1 <0>        -0.4493
     36 N3          2.7341   -3.5668    3.0248 N.am      1 <0>        -0.6792
     37 C29         2.4059   -4.6760    2.3375 C.2       1 <0>         0.5803
     38 O6          2.5925   -5.8193    2.7039 O.2       1 <0>        -0.4603
     39 Cl1         3.9370   -0.7941   -0.0415 Cl        1 <0>        -0.0601
     40 H1         -0.9598    1.9011    0.0260 H         1 <0>         0.1339
     41 H2          1.1498    3.1667    0.0077 H         1 <0>         0.1352
     42 H3          3.3052    1.9823   -0.0189 H         1 <0>         0.1373
     43 H4         -0.9252   -0.5577    0.0083 H         1 <0>         0.1348
     44 H5          0.3375   -2.3200   -1.9574 H         1 <0>         0.1441
     45 H6          1.8065   -7.4623    1.3367 H         1 <0>         0.1541
     46 H7          0.6612   -9.6985   -2.1974 H         1 <0>         0.0874
     47 H8          0.1555   -7.6276   -3.4234 H         1 <0>         0.1385
     48 H9         -1.0254   -5.5553   -3.6650 H         1 <0>         0.0987
     49 H10        -0.9190   -3.8426   -3.1921 H         1 <0>         0.1033
     50 H11         0.1949   -4.1476   -5.3506 H         1 <0>         0.0636
     51 H12         1.4188   -3.7843   -4.1103 H         1 <0>         0.0518
     52 H13         2.0327   -5.6709   -5.4406 H         1 <0>         0.3817
     53 H14         2.4735  -10.5778   -3.2728 H         1 <0>         0.0533
     54 H15         2.3756   -9.0214   -4.1309 H         1 <0>         0.0561
     55 H16         4.7419   -8.5549   -3.5549 H         1 <0>         0.0778
     56 H17         4.8398  -10.1113   -2.6968 H         1 <0>         0.0796
     57 H18         4.3088  -11.3063   -4.8036 H         1 <0>         0.0912
     58 H19         4.2109   -9.7499   -5.6617 H         1 <0>         0.0905
     59 H20         6.4680   -8.4414   -6.1231 H         1 <0>         0.1584
     60 H21         8.9858   -9.1683   -6.0927 H         1 <0>         0.1338
     61 H22         9.1318  -11.5251   -4.8096 H         1 <0>         0.1342
     62 H23         6.7012  -12.1756   -4.0759 H         1 <0>         0.1597
     63 H24         1.6833   -9.9535    1.2495 H         1 <0>         0.3828
     64 H25        -0.5921   -9.1507    0.9733 H         1 <0>         0.3877
     65 H26         3.1548   -3.5668    3.8988 H         1 <0>         0.4315
@<TRIPOS>BOND
     1    1    6 ar
     2    1    2 ar
     3    1   40 1
     4    2    3 ar
     5    2   41 1
     6    3    4 ar
     7    3   42 1
     8    4    5 ar
     9    4   39 1
    10    5    6 ar
    11    5    7 1
    12    6   43 1
    13    7   33 ar
    14    7    8 ar
    15    8    9 ar
    16    8   44 1
    17    9   17 1
    18    9   10 ar
    19   10   11 1
    20   10   32 ar
    21   11   16 1
    22   11   12 2
    23   12   13 1
    24   12   45 1
    25   13   14 1
    26   13   30 1
    27   13   31 1
    28   14   15 1
    29   14   21 1
    30   14   46 1
    31   15   16 2
    32   15   47 1
    33   16   17 1
    34   17   18 1
    35   18   19 1
    36   18   48 1
    37   18   49 1
    38   19   20 1
    39   19   50 1
    40   19   51 1
    41   20   52 1
    42   21   22 1
    43   22   23 1
    44   22   53 1
    45   22   54 1
    46   23   24 1
    47   23   55 1
    48   23   56 1
    49   24   25 1
    50   24   57 1
    51   24   58 1
    52   25   29 1
    53   25   26 1
    54   26   27 2
    55   26   59 1
    56   27   28 1
    57   27   60 1
    58   28   29 2
    59   28   61 1
    60   29   62 1
    61   30   63 1
    62   31   64 1
    63   32   37 1
    64   32   33 ar
    65   33   34 1
    66   34   35 2
    67   34   36 am
    68   36   37 am
    69   36   65 1
    70   37   38 2
@<TRIPOS>MOLECULE
CHEMBL530112
   55    60     0     0     0
SMALL
USER_CHARGES

@<TRIPOS>ATOM
      1 C1         -0.0166    1.3753    0.0096 C.ar      1 <0>        -0.1160
      2 C2          1.1702    2.0869    0.0021 C.ar      1 <0>        -0.0955
      3 C3          2.3823    1.4213   -0.0135 C.ar      1 <0>        -0.1088
      4 C4          2.4147    0.0403   -0.0213 C.ar      1 <0>        -0.0003
      5 C5          1.2208   -0.6823   -0.0133 C.ar      1 <0>        -0.0548
      6 C6          0.0021   -0.0041    0.0020 C.ar      1 <0>        -0.0863
      7 C7          1.2476   -2.1633   -0.0220 C.ar      1 <0>         0.0582
      8 C8          0.7443   -2.8623   -1.1176 C.ar      1 <0>        -0.1058
      9 C9          0.7641   -4.2503   -1.1370 C.ar      1 <0>         0.1750
     10 C10         1.2978   -4.9603   -0.0406 C.ar      1 <0>        -0.0291
     11 C11         1.1711   -6.3898   -0.3691 C.ar      1 <0>        -0.0950
     12 C12         1.5141   -7.5614    0.3052 C.ar      1 <0>        -0.0736
     13 C13         1.2616   -8.7878   -0.2800 C.ar      1 <0>         0.0785
     14 C14         0.6683   -8.8531   -1.5363 C.ar      1 <0>        -0.0952
     15 C15         0.3265   -7.7006   -2.2102 C.ar      1 <0>        -0.1253
     16 C16         0.5722   -6.4571   -1.6364 C.ar      1 <0>         0.1421
     17 N1          0.3368   -5.1656   -2.0786 N.pl3     1 <0>        -0.4972
     18 C17        -0.2788   -4.8200   -3.3623 C.3       1 <0>         0.1134
     19 C18         0.8102   -4.6727   -4.4269 C.3       1 <0>        -0.1324
     20 C19         0.1673   -4.3117   -5.7675 C.3       1 <0>        -0.1408
     21 C20         1.2399   -4.1666   -6.8161 C.2       1 <0>         0.5310
     22 O1          2.3995   -4.3347   -6.5214 O.2       1 <0>        -0.4604
     23 N2          0.9057   -3.8494   -8.0826 N.am      1 <0>        -0.4720
     24 C21         1.7685   -3.6892   -9.1422 C.2       1 <0>        -0.0298
     25 C22         1.0164   -3.3780  -10.2121 C.2       1 <0>        -0.0146
     26 N3         -0.2704   -3.3461   -9.8291 N.2       1 <0>        -0.4680
     27 C23        -0.3534   -3.6315   -8.5604 C.2       1 <0>         0.2058
     28 O2          1.5943   -9.9330    0.3737 O.3       1 <0>        -0.4929
     29 C24         1.8044   -4.2673    1.0595 C.ar      1 <0>        -0.0797
     30 C25         1.7840   -2.8596    1.0679 C.ar      1 <0>        -0.1511
     31 C26         2.3884   -2.4533    2.3485 C.2       1 <0>         0.5791
     32 O3          2.5449   -1.3094    2.7274 O.2       1 <0>        -0.4476
     33 N4          2.7379   -3.5599    3.0287 N.am      1 <0>        -0.6805
     34 C27         2.4184   -4.6701    2.3393 C.2       1 <0>         0.5790
     35 O4          2.6139   -5.8124    2.7038 O.2       1 <0>        -0.4561
     36 Cl1         3.9368   -0.7943   -0.0415 Cl        1 <0>        -0.0604
     37 H1         -0.9598    1.9012    0.0260 H         1 <0>         0.1336
     38 H2          1.1498    3.1667    0.0081 H         1 <0>         0.1348
     39 H3          3.3052    1.9822   -0.0201 H         1 <0>         0.1369
     40 H4         -0.9252   -0.5577    0.0083 H         1 <0>         0.1346
     41 H5          0.3356   -2.3202   -1.9575 H         1 <0>         0.1445
     42 H6          1.9754   -7.5105    1.2804 H         1 <0>         0.1477
     43 H7          0.4742   -9.8149   -1.9876 H         1 <0>         0.1396
     44 H8         -0.1334   -7.7627   -3.1854 H         1 <0>         0.1319
     45 H9         -0.9710   -5.6085   -3.6574 H         1 <0>         0.0986
     46 H10        -0.8204   -3.8791   -3.2640 H         1 <0>         0.0968
     47 H11         1.5024   -3.8841   -4.1319 H         1 <0>         0.0840
     48 H12         1.3518   -5.6135   -4.5253 H         1 <0>         0.0848
     49 H13        -0.5249   -5.1003   -6.0626 H         1 <0>         0.1148
     50 H14        -0.3743   -3.3709   -5.6692 H         1 <0>         0.1147
     51 H15         2.8433   -3.7932   -9.1188 H         1 <0>         0.1855
     52 H16         1.3841   -3.1863  -11.2093 H         1 <0>         0.1821
     53 H17        -1.2651   -3.6843   -7.9838 H         1 <0>         0.2204
     54 H18         0.8923  -10.2803    0.9408 H         1 <0>         0.3905
     55 H19         3.1568   -3.5579    3.9036 H         1 <0>         0.4316
@<TRIPOS>BOND
     1    1    6 ar
     2    1    2 ar
     3    1   37 1
     4    2    3 ar
     5    2   38 1
     6    3    4 ar
     7    3   39 1
     8    4    5 ar
     9    4   36 1
    10    5    6 ar
    11    5    7 1
    12    6   40 1
    13    7   30 ar
    14    7    8 ar
    15    8    9 ar
    16    8   41 1
    17    9   17 1
    18    9   10 ar
    19   10   11 1
    20   10   29 ar
    21   11   16 ar
    22   11   12 ar
    23   12   13 ar
    24   12   42 1
    25   13   14 ar
    26   13   28 1
    27   14   15 ar
    28   14   43 1
    29   15   16 ar
    30   15   44 1
    31   16   17 1
    32   17   18 1
    33   18   19 1
    34   18   45 1
    35   18   46 1
    36   19   20 1
    37   19   47 1
    38   19   48 1
    39   20   21 1
    40   20   49 1
    41   20   50 1
    42   21   22 2
    43   21   23 am
    44   23   27 1
    45   23   24 1
    46   24   25 2
    47   24   51 1
    48   25   26 1
    49   25   52 1
    50   26   27 2
    51   27   53 1
    52   28   54 1
    53   29   34 1
    54   29   30 ar
    55   30   31 1
    56   31   32 2
    57   31   33 am
    58   33   34 am
    59   33   55 1
    60   34   35 2
@<TRIPOS>MOLECULE
CHEMBL540206
   64    67     0     0     0
SMALL
USER_CHARGES

@<TRIPOS>ATOM
      1 C1          0.6425    1.6128    0.2802 C.3       1 <0>        -0.1871
      2 C2          0.4818    0.0944    0.1832 C.3       1 <0>        -0.0177
      3 N1          0.8702   -0.3544   -1.1605 N.4       1 <0>        -0.3874
      4 C3          2.3056   -0.1146   -1.3610 C.3       1 <0>        -0.0150
      5 C4          2.6811   -0.4466   -2.8065 C.3       1 <0>        -0.1887
      6 C5          0.5897   -1.7898   -1.2976 C.3       1 <0>        -0.0056
      7 C6         -0.9197   -2.0249   -1.2129 C.3       1 <0>         0.0263
      8 O1         -1.5615   -1.4060   -2.3297 O.3       1 <0>        -0.3278
      9 C7         -2.9143   -1.5216   -2.4063 C.ar      1 <0>         0.0958
     10 C8         -3.6078   -2.2117   -1.4230 C.ar      1 <0>        -0.1804
     11 C9         -4.9815   -2.3295   -1.5000 C.ar      1 <0>        -0.0706
     12 C10        -5.6687   -1.7569   -2.5623 C.ar      1 <0>         0.1445
     13 C11        -4.9736   -1.0662   -3.5462 C.ar      1 <0>        -0.1040
     14 C12        -3.6005   -0.9444   -3.4647 C.ar      1 <0>        -0.1179
     15 N2         -7.0615   -1.8763   -2.6414 N.pl3     1 <0>        -0.6287
     16 C13        -7.8197   -1.8974   -1.4866 C.ar      1 <0>         0.6052
     17 N3         -7.2165   -1.6899   -0.3210 N.ar      1 <0>        -0.5751
     18 C14        -7.8953   -1.6994    0.8106 C.ar      1 <0>         0.2614
     19 C15        -9.2779   -1.9344    0.7626 C.ar      1 <0>        -0.2700
     20 C16       -10.0584   -1.9560    1.9411 C.2       1 <0>         0.0234
     21 C17       -11.4038   -2.1892    1.8419 C.2       1 <0>        -0.1517
     22 C18       -11.9999   -2.4097    0.5224 C.2       1 <0>         0.5547
     23 O2        -13.1963   -2.6175    0.4249 O.2       1 <0>        -0.4936
     24 N4        -11.2320   -2.3835   -0.5839 N.am      1 <0>        -0.5054
     25 C19        -9.8828   -2.1506   -0.4941 C.ar      1 <0>         0.4678
     26 N5         -9.1217   -2.1183   -1.5825 N.ar      1 <0>        -0.5900
     27 C20       -11.8436   -2.6060   -1.8964 C.3       1 <0>         0.0683
     28 C21       -12.2490   -2.2186    3.0583 C.ar      1 <0>        -0.0249
     29 C22       -12.4460   -3.4178    3.7447 C.ar      1 <0>         0.0108
     30 C23       -13.2342   -3.4409    4.8775 C.ar      1 <0>        -0.1332
     31 C24       -13.8310   -2.2737    5.3341 C.ar      1 <0>         0.1458
     32 C25       -13.6376   -1.0789    4.6543 C.ar      1 <0>        -0.1330
     33 C26       -12.8458   -1.0460    3.5243 C.ar      1 <0>         0.0107
     34 Cl1       -12.5988    0.4501    2.6791 Cl        1 <0>        -0.0425
     35 O3        -14.6070   -2.3009    6.4493 O.3       1 <0>        -0.4855
     36 Cl2       -11.7012   -4.8783    3.1741 Cl        1 <0>        -0.0428
     37 H1          1.6978    1.8726    0.1963 H         1 <0>         0.0814
     38 H2          0.0857    2.0893   -0.5267 H         1 <0>         0.0804
     39 H3          0.2585    1.9583    1.2400 H         1 <0>         0.1064
     40 H4          1.1191   -0.3865    0.9253 H         1 <0>         0.1311
     41 H5         -0.5583   -0.1735    0.3692 H         1 <0>         0.1288
     42 H6          2.5308    0.9325   -1.1584 H         1 <0>         0.1329
     43 H7          2.8779   -0.7472   -0.6825 H         1 <0>         0.1299
     44 H8          2.5519   -1.5150   -2.9793 H         1 <0>         0.0804
     45 H9          2.0378    0.1119   -3.4865 H         1 <0>         0.0810
     46 H10         3.7213   -0.1731   -2.9837 H         1 <0>         0.1063
     47 H11         0.9588   -2.1418   -2.2609 H         1 <0>         0.1436
     48 H12         1.0879   -2.3355   -0.4962 H         1 <0>         0.1487
     49 H13        -1.1219   -3.0959   -1.2253 H         1 <0>         0.1085
     50 H14        -1.3034   -1.5934   -0.2884 H         1 <0>         0.0861
     51 H15        -3.0732   -2.6573   -0.5971 H         1 <0>         0.1301
     52 H16        -5.5213   -2.8672   -0.7345 H         1 <0>         0.1437
     53 H17        -5.5073   -0.6208   -4.3728 H         1 <0>         0.1392
     54 H18        -3.0603   -0.4032   -4.2273 H         1 <0>         0.1374
     55 H19        -7.4941   -1.9442   -3.5069 H         1 <0>         0.4294
     56 H20        -7.3972   -1.5302    1.7538 H         1 <0>         0.1878
     57 H21        -9.6002   -1.7915    2.9052 H         1 <0>         0.1520
     58 H22       -12.9139   -2.7731   -1.7750 H         1 <0>         0.1029
     59 H23       -11.6816   -1.7309   -2.5258 H         1 <0>         0.0814
     60 H24       -11.3904   -3.4795   -2.3651 H         1 <0>         0.0814
     61 H25       -13.3871   -4.3685    5.4092 H         1 <0>         0.1517
     62 H26       -14.1036   -0.1729    5.0127 H         1 <0>         0.1517
     63 H27       -14.1217   -2.1406    7.2702 H         1 <0>         0.4007
     64 H28         0.3438    0.1587   -1.8517 H         1 <0>         0.4292
@<TRIPOS>BOND
     1    1    2 1
     2    1   37 1
     3    1   38 1
     4    1   39 1
     5    2    3 1
     6    2   40 1
     7    2   41 1
     8    3    4 1
     9    3    6 1
    10    3   64 1
    11    4    5 1
    12    4   42 1
    13    4   43 1
    14    5   44 1
    15    5   45 1
    16    5   46 1
    17    6    7 1
    18    6   47 1
    19    6   48 1
    20    7    8 1
    21    7   49 1
    22    7   50 1
    23    8    9 1
    24    9   14 ar
    25    9   10 ar
    26   10   11 ar
    27   10   51 1
    28   11   12 ar
    29   11   52 1
    30   12   13 ar
    31   12   15 1
    32   13   14 ar
    33   13   53 1
    34   14   54 1
    35   15   16 1
    36   15   55 1
    37   16   26 ar
    38   16   17 ar
    39   17   18 ar
    40   18   19 ar
    41   18   56 1
    42   19   25 ar
    43   19   20 1
    44   20   21 2
    45   20   57 1
    46   21   22 1
    47   21   28 1
    48   22   23 2
    49   22   24 am
    50   24   25 1
    51   24   27 1
    52   25   26 ar
    53   27   58 1
    54   27   59 1
    55   27   60 1
    56   28   33 ar
    57   28   29 ar
    58   29   30 ar
    59   29   36 1
    60   30   31 ar
    61   30   61 1
    62   31   32 ar
    63   31   35 1
    64   32   33 ar
    65   32   62 1
    66   33   34 1
    67   35   63 1
@<TRIPOS>MOLECULE
CHEMBL362862
   72    76     0     0     0
SMALL
USER_CHARGES

@<TRIPOS>ATOM
      1 C1         -0.7833    1.4418   -2.1655 C.3       1 <0>         0.0701
      2 N1         -0.9200    0.1716   -2.8826 N.am      1 <0>        -0.5063
      3 C2         -2.1285   -0.4780   -2.8888 C.ar      1 <0>         0.4667
      4 C3         -2.2772   -1.7026   -3.5753 C.ar      1 <0>        -0.2779
      5 C4         -1.1804   -2.2703   -4.2631 C.2       1 <0>         0.0318
      6 C5          0.0216   -1.6149   -4.2514 C.2       1 <0>        -0.1650
      7 C6          0.1405   -0.3437   -3.5338 C.2       1 <0>         0.5579
      8 O1          1.2050    0.2483   -3.5221 O.2       1 <0>        -0.5031
      9 C7          1.1902   -2.1840   -4.9622 C.ar      1 <0>        -0.0095
     10 C8          2.0562   -3.0559   -4.3010 C.ar      1 <0>        -0.0068
     11 C9          3.1435   -3.5833   -4.9696 C.ar      1 <0>        -0.1063
     12 C10         3.3753   -3.2487   -6.2916 C.ar      1 <0>        -0.0876
     13 C11         2.5210   -2.3846   -6.9528 C.ar      1 <0>        -0.1062
     14 C12         1.4265   -1.8551   -6.2976 C.ar      1 <0>        -0.0068
     15 Cl1         0.3516   -0.7765   -7.1312 Cl        1 <0>        -0.0503
     16 Cl2         1.7677   -3.4762   -2.6416 Cl        1 <0>        -0.0502
     17 C13        -3.5298   -2.3343   -3.5573 C.ar      1 <0>         0.2644
     18 N2         -4.5184   -1.7582   -2.8993 N.ar      1 <0>        -0.5667
     19 C14        -4.3418   -0.6048   -2.2643 C.ar      1 <0>         0.6091
     20 N3         -3.1788    0.0285   -2.2529 N.ar      1 <0>        -0.5955
     21 N4         -5.4108   -0.0453   -1.5908 N.pl3     1 <0>        -0.6269
     22 C15        -6.6130   -0.7501   -1.4796 C.ar      1 <0>         0.1520
     23 C16        -6.5986   -2.1287   -1.3101 C.ar      1 <0>        -0.1033
     24 C17        -7.7880   -2.8219   -1.2006 C.ar      1 <0>        -0.0960
     25 C18        -8.9925   -2.1451   -1.2599 C.ar      1 <0>        -0.0926
     26 C19        -9.0104   -0.7727   -1.4290 C.ar      1 <0>        -0.0953
     27 C20        -7.8245   -0.0726   -1.5325 C.ar      1 <0>        -0.1380
     28 C21       -10.2885   -2.9049   -1.1406 C.3       1 <0>        -0.0788
     29 C22       -10.6985   -2.9858    0.3313 C.3       1 <0>        -0.1039
     30 C23       -12.0142   -3.7572    0.4525 C.3       1 <0>        -0.1132
     31 C24       -12.4181   -3.8369    1.9021 C.2       1 <0>         0.4579
     32 O2        -11.7247   -3.3288    2.7512 O.2       1 <0>        -0.5101
     33 O3        -13.5481   -4.4723    2.2501 O.3       1 <0>        -0.3370
     34 C25       -13.8695   -4.5091    3.6420 C.3       1 <0>         0.0721
     35 C26       -15.1818   -5.2697    3.8425 C.3       1 <0>         0.0539
     36 N5        -15.0094   -6.6647    3.4158 N.3       1 <0>        -0.5317
     37 C27       -16.3103   -7.3111    3.1896 C.3       1 <0>         0.0181
     38 C28       -16.0839   -8.7406    2.6903 C.3       1 <0>         0.0630
     39 O4        -15.2842   -9.4508    3.6397 O.3       1 <0>        -0.3851
     40 C29       -14.0098   -8.8492    3.8836 C.3       1 <0>         0.0642
     41 C30       -14.2152   -7.4209    4.3950 C.3       1 <0>         0.0126
     42 H1          0.2363    1.8118   -2.2729 H         1 <0>         0.1006
     43 H2         -1.4797    2.1703   -2.5808 H         1 <0>         0.0800
     44 H3         -1.0048    1.2884   -1.1094 H         1 <0>         0.0802
     45 H4         -1.2888   -3.2071   -4.7895 H         1 <0>         0.1504
     46 H5          3.8145   -4.2583   -4.4590 H         1 <0>         0.1437
     47 H6          4.2272   -3.6636   -6.8098 H         1 <0>         0.1453
     48 H7          2.7080   -2.1268   -7.9847 H         1 <0>         0.1437
     49 H8         -3.6820   -3.2719   -4.0712 H         1 <0>         0.1878
     50 H9         -5.3271    0.8364   -1.1953 H         1 <0>         0.4262
     51 H10        -5.6583   -2.6580   -1.2645 H         1 <0>         0.1305
     52 H11        -7.7775   -3.8938   -1.0689 H         1 <0>         0.1259
     53 H12        -9.9528   -0.2472   -1.4753 H         1 <0>         0.1267
     54 H13        -7.8391    0.9997   -1.6597 H         1 <0>         0.1253
     55 H14       -11.0650   -2.3900   -1.7063 H         1 <0>         0.0758
     56 H15       -10.1572   -3.9117   -1.5370 H         1 <0>         0.0765
     57 H16        -9.9220   -3.5007    0.8970 H         1 <0>         0.0740
     58 H17       -10.8298   -1.9790    0.7277 H         1 <0>         0.0737
     59 H18       -12.7907   -3.2423   -0.1133 H         1 <0>         0.1065
     60 H19       -11.8830   -4.7640    0.0560 H         1 <0>         0.1074
     61 H20       -13.0707   -5.0132    4.1860 H         1 <0>         0.0675
     62 H21       -13.9784   -3.4914    4.0168 H         1 <0>         0.0729
     63 H22       -15.4595   -5.2437    4.8962 H         1 <0>         0.0620
     64 H23       -15.9670   -4.8024    3.2482 H         1 <0>         0.0893
     65 H24       -16.8714   -7.3365    4.1238 H         1 <0>         0.0439
     66 H25       -16.8710   -6.7492    2.4427 H         1 <0>         0.0891
     67 H26       -17.0446   -9.2426    2.5758 H         1 <0>         0.0995
     68 H27       -15.5699   -8.7133    1.7295 H         1 <0>         0.0615
     69 H28       -13.4705   -9.4298    4.6320 H         1 <0>         0.0991
     70 H29       -13.4355   -8.8251    2.9574 H         1 <0>         0.0609
     71 H30       -13.2466   -6.9390    4.5279 H         1 <0>         0.0852
     72 H31       -14.7428   -7.4480    5.3484 H         1 <0>         0.0454
@<TRIPOS>BOND
     1    1    2 1
     2    1   42 1
     3    1   43 1
     4    1   44 1
     5    2    7 am
     6    2    3 1
     7    3   20 ar
     8    3    4 ar
     9    4    5 1
    10    4   17 ar
    11    5    6 2
    12    5   45 1
    13    6    7 1
    14    6    9 1
    15    7    8 2
    16    9   14 ar
    17    9   10 ar
    18   10   11 ar
    19   10   16 1
    20   11   12 ar
    21   11   46 1
    22   12   13 ar
    23   12   47 1
    24   13   14 ar
    25   13   48 1
    26   14   15 1
    27   17   18 ar
    28   17   49 1
    29   18   19 ar
    30   19   20 ar
    31   19   21 1
    32   21   22 1
    33   21   50 1
    34   22   27 ar
    35   22   23 ar
    36   23   24 ar
    37   23   51 1
    38   24   25 ar
    39   24   52 1
    40   25   26 ar
    41   25   28 1
    42   26   27 ar
    43   26   53 1
    44   27   54 1
    45   28   29 1
    46   28   55 1
    47   28   56 1
    48   29   30 1
    49   29   57 1
    50   29   58 1
    51   30   31 1
    52   30   59 1
    53   30   60 1
    54   31   32 2
    55   31   33 1
    56   33   34 1
    57   34   35 1
    58   34   61 1
    59   34   62 1
    60   35   36 1
    61   35   63 1
    62   35   64 1
    63   36   41 1
    64   36   37 1
    65   37   38 1
    66   37   65 1
    67   37   66 1
    68   38   39 1
    69   38   67 1
    70   38   68 1
    71   39   40 1
    72   40   41 1
    73   40   69 1
    74   40   70 1
    75   41   71 1
    76   41   72 1
@<TRIPOS>MOLECULE
CHEMBL362862
   73    77     0     0     0
SMALL
USER_CHARGES

@<TRIPOS>ATOM
      1 C1         -0.4445    1.2976   -1.4905 C.3       1 <0>         0.0695
      2 N1         -0.5718    0.0416   -2.2339 N.am      1 <0>        -0.5061
      3 C2         -1.7874   -0.5919   -2.2935 C.ar      1 <0>         0.4665
      4 C3         -1.9273   -1.8026   -3.0060 C.ar      1 <0>        -0.2735
      5 C4         -0.8142   -2.3730   -3.6647 C.2       1 <0>         0.0269
      6 C5          0.3948   -1.7337   -3.5996 C.2       1 <0>        -0.1580
      7 C6          0.5043   -0.4766   -2.8564 C.2       1 <0>         0.5564
      8 O1          1.5751    0.1011   -2.7973 O.2       1 <0>        -0.4989
      9 C7          1.5805   -2.3061   -4.2790 C.ar      1 <0>        -0.0129
     10 C8          2.4116   -3.2004   -3.6031 C.ar      1 <0>        -0.0065
     11 C9          3.5151   -3.7307   -4.2424 C.ar      1 <0>        -0.1058
     12 C10         3.7974   -3.3769   -5.5495 C.ar      1 <0>        -0.0860
     13 C11         2.9778   -2.4906   -6.2250 C.ar      1 <0>        -0.1054
     14 C12         1.8677   -1.9578   -5.5994 C.ar      1 <0>        -0.0065
     15 Cl1         0.8364   -0.8513   -6.4512 Cl        1 <0>        -0.0501
     16 Cl2         2.0597   -3.6448   -1.9623 Cl        1 <0>        -0.0513
     17 C13        -3.1876   -2.4180   -3.0426 C.ar      1 <0>         0.2630
     18 N2         -4.1913   -1.8401   -2.4097 N.ar      1 <0>        -0.5694
     19 C14        -4.0227   -0.7000   -1.7490 C.ar      1 <0>         0.6071
     20 N3         -2.8531   -0.0824   -1.6861 N.ar      1 <0>        -0.5934
     21 N4         -5.1076   -0.1380   -1.1037 N.pl3     1 <0>        -0.6302
     22 C15        -6.3237   -0.8258   -1.0525 C.ar      1 <0>         0.1611
     23 C16        -6.3367   -2.2061   -0.8973 C.ar      1 <0>        -0.1037
     24 C17        -7.5397   -2.8824   -0.8472 C.ar      1 <0>        -0.0956
     25 C18        -8.7305   -2.1871   -0.9517 C.ar      1 <0>        -0.1024
     26 C19        -8.7211   -0.8130   -1.1067 C.ar      1 <0>        -0.0941
     27 C20        -7.5217   -0.1298   -1.1510 C.ar      1 <0>        -0.1385
     28 C21       -10.0414   -2.9286   -0.8970 C.3       1 <0>        -0.0760
     29 C22       -10.5165   -3.0181    0.5546 C.3       1 <0>        -0.1077
     30 C23       -11.8474   -3.7709    0.6101 C.3       1 <0>        -0.1126
     31 C24       -12.3154   -3.8591    2.0398 C.2       1 <0>         0.4665
     32 O2        -11.6525   -3.3700    2.9237 O.2       1 <0>        -0.4815
     33 O3        -13.4686   -4.4809    2.3314 O.3       1 <0>        -0.3734
     34 C25       -13.8510   -4.5269    3.7075 C.3       1 <0>         0.0297
     35 C26       -15.1818   -5.2697    3.8425 C.3       1 <0>        -0.0001
     36 N5        -15.0094   -6.6647    3.4158 N.4       1 <0>        -0.3874
     37 C27       -16.3157   -7.3374    3.4003 C.3       1 <0>        -0.0438
     38 C28       -16.1334   -8.7906    2.9552 C.3       1 <0>         0.0354
     39 O4        -15.2171   -9.4429    3.8387 O.3       1 <0>        -0.3555
     40 C29       -13.9362   -8.8100    3.9065 C.3       1 <0>         0.0375
     41 C30       -14.1144   -7.3569    4.3534 C.3       1 <0>        -0.0510
     42 H1          0.5828    1.6559   -1.5558 H         1 <0>         0.1016
     43 H2         -1.1167    2.0421   -1.9172 H         1 <0>         0.0805
     44 H3         -0.7049    1.1294   -0.4456 H         1 <0>         0.0803
     45 H4         -0.9158   -3.2993   -4.2107 H         1 <0>         0.1510
     46 H5          4.1591   -4.4229   -3.7204 H         1 <0>         0.1444
     47 H6          4.6617   -3.7942   -6.0447 H         1 <0>         0.1464
     48 H7          3.2041   -2.2179   -7.2452 H         1 <0>         0.1446
     49 H8         -3.3334   -3.3447   -3.5778 H         1 <0>         0.1879
     50 H9         -5.0255    0.7337   -0.6863 H         1 <0>         0.4270
     51 H10        -5.4071   -2.7498   -0.8164 H         1 <0>         0.1315
     52 H11        -7.5506   -3.9556   -0.7265 H         1 <0>         0.1242
     53 H12        -9.6529   -0.2730   -1.1884 H         1 <0>         0.1259
     54 H13        -7.5152    0.9439   -1.2673 H         1 <0>         0.1270
     55 H14       -10.7848   -2.3965   -1.4905 H         1 <0>         0.0766
     56 H15        -9.9075   -3.9332   -1.2981 H         1 <0>         0.0762
     57 H16        -9.7731   -3.5502    1.1481 H         1 <0>         0.0764
     58 H17       -10.6504   -2.0135    0.9557 H         1 <0>         0.0774
     59 H18       -12.5908   -3.2388    0.0166 H         1 <0>         0.1140
     60 H19       -11.7135   -4.7755    0.2090 H         1 <0>         0.1112
     61 H20       -13.0842   -5.0482    4.2805 H         1 <0>         0.0925
     62 H21       -13.9615   -3.5115    4.0880 H         1 <0>         0.1167
     63 H22       -15.5076   -5.2454    4.8824 H         1 <0>         0.1518
     64 H23       -15.9320   -4.7880    3.2154 H         1 <0>         0.1457
     65 H24       -16.7481   -7.3150    4.4006 H         1 <0>         0.1405
     66 H25       -16.9804   -6.8248    2.7049 H         1 <0>         0.1448
     67 H26       -17.0948   -9.3035    2.9842 H         1 <0>         0.1436
     68 H27       -15.7385   -8.8134    1.9395 H         1 <0>         0.0821
     69 H28       -13.3073   -9.3370    4.6241 H         1 <0>         0.1430
     70 H29       -13.4661   -8.8335    2.9234 H         1 <0>         0.0817
     71 H30       -13.1450   -6.8587    4.3656 H         1 <0>         0.1395
     72 H31       -14.5477   -7.3345    5.3533 H         1 <0>         0.1424
     73 H32       -14.6087   -6.6864    2.4900 H         1 <0>         0.4287
@<TRIPOS>BOND
     1    1    2 1
     2    1   42 1
     3    1   43 1
     4    1   44 1
     5    2    7 am
     6    2    3 1
     7    3   20 ar
     8    3    4 ar
     9    4    5 1
    10    4   17 ar
    11    5    6 2
    12    5   45 1
    13    6    7 1
    14    6    9 1
    15    7    8 2
    16    9   14 ar
    17    9   10 ar
    18   10   11 ar
    19   10   16 1
    20   11   12 ar
    21   11   46 1
    22   12   13 ar
    23   12   47 1
    24   13   14 ar
    25   13   48 1
    26   14   15 1
    27   17   18 ar
    28   17   49 1
    29   18   19 ar
    30   19   20 ar
    31   19   21 1
    32   21   22 1
    33   21   50 1
    34   22   27 ar
    35   22   23 ar
    36   23   24 ar
    37   23   51 1
    38   24   25 ar
    39   24   52 1
    40   25   26 ar
    41   25   28 1
    42   26   27 ar
    43   26   53 1
    44   27   54 1
    45   28   29 1
    46   28   55 1
    47   28   56 1
    48   29   30 1
    49   29   57 1
    50   29   58 1
    51   30   31 1
    52   30   59 1
    53   30   60 1
    54   31   32 2
    55   31   33 1
    56   33   34 1
    57   34   35 1
    58   34   61 1
    59   34   62 1
    60   35   36 1
    61   35   63 1
    62   35   64 1
    63   36   41 1
    64   36   37 1
    65   36   73 1
    66   37   38 1
    67   37   65 1
    68   37   66 1
    69   38   39 1
    70   38   67 1
    71   38   68 1
    72   39   40 1
    73   40   41 1
    74   40   69 1
    75   40   70 1
    76   41   71 1
    77   41   72 1
@<TRIPOS>MOLECULE
CHEMBL519238
   54    59     0     0     0
SMALL
USER_CHARGES

@<TRIPOS>ATOM
      1 C1         -0.0167    1.3792    0.0096 C.ar      1 <0>        -0.1026
      2 C2          1.1685    2.0927    0.0021 C.ar      1 <0>        -0.1248
      3 C3          2.3774    1.4276   -0.0135 C.ar      1 <0>        -0.0992
      4 C4          2.4028    0.0333   -0.0212 C.ar      1 <0>        -0.0741
      5 C5          1.2047   -0.6805   -0.0131 C.ar      1 <0>        -0.0682
      6 C6          0.0021   -0.0041    0.0020 C.ar      1 <0>        -0.1151
      7 C7          3.6973   -0.6869   -0.0384 C.ar      1 <0>         0.0714
      8 C8          4.6754   -0.3384   -0.9678 C.ar      1 <0>        -0.1174
      9 C9          5.8922   -1.0065   -0.9938 C.ar      1 <0>         0.1718
     10 C10         6.1423   -2.0459   -0.0730 C.ar      1 <0>        -0.0334
     11 C11         7.4991   -2.5393   -0.3607 C.ar      1 <0>        -0.0902
     12 C12         8.2934   -3.5392    0.1999 C.ar      1 <0>        -0.0737
     13 C13         9.5594   -3.7717   -0.3037 C.ar      1 <0>         0.0858
     14 C14        10.0393   -3.0111   -1.3648 C.ar      1 <0>        -0.0956
     15 C15         9.2614   -2.0209   -1.9249 C.ar      1 <0>        -0.1286
     16 C16         7.9844   -1.7730   -1.4314 C.ar      1 <0>         0.1341
     17 N1          7.0072   -0.8611   -1.7955 N.pl3     1 <0>        -0.5031
     18 C17         7.1380    0.1182   -2.8772 C.3       1 <0>         0.1187
     19 C18         7.7289    1.4156   -2.3217 C.3       1 <0>        -0.1665
     20 C19         7.8655    2.4384   -3.4514 C.3       1 <0>         0.0953
     21 N2          8.4313    3.6807   -2.9196 N.pl3     1 <0>        -0.4090
     22 C20         7.7300    4.7381   -2.4060 C.2       1 <0>         0.0255
     23 C21         8.6359    5.6627   -2.0343 C.2       1 <0>         0.0057
     24 N3          9.8569    5.1829   -2.3132 N.pl3     1 <0>        -0.4752
     25 C22         9.7424    3.9941   -2.8391 C.cat     1 <0>         0.2893
     26 O1         10.3376   -4.7456    0.2396 O.3       1 <0>        -0.4926
     27 C23         5.1676   -2.4003    0.8608 C.ar      1 <0>        -0.0741
     28 C24         3.9391   -1.7132    0.8827 C.ar      1 <0>        -0.1585
     29 C25         3.1555   -2.3189    1.9736 C.2       1 <0>         0.5771
     30 O2          2.0310   -1.9966    2.3024 O.2       1 <0>        -0.4468
     31 N4          3.8925   -3.2886    2.5445 N.am      1 <0>        -0.6790
     32 C26         5.0881   -3.4048    1.9386 C.2       1 <0>         0.5765
     33 O3          5.9616   -4.1941    2.2386 O.2       1 <0>        -0.4517
     34 H1         -0.9604    1.9042    0.0260 H         1 <0>         0.1265
     35 H2          1.1476    3.1725    0.0082 H         1 <0>         0.1255
     36 H3          3.3020    1.9857   -0.0200 H         1 <0>         0.1201
     37 H4          1.2181   -1.7604   -0.0194 H         1 <0>         0.1228
     38 H5         -0.9264   -0.5557    0.0079 H         1 <0>         0.1286
     39 H6          4.4855    0.4570   -1.6732 H         1 <0>         0.1420
     40 H7          7.9210   -4.1292    1.0243 H         1 <0>         0.1499
     41 H8         11.0297   -3.1978   -1.7528 H         1 <0>         0.1411
     42 H9          9.6439   -1.4363   -2.7485 H         1 <0>         0.1290
     43 H10         7.7963   -0.2794   -3.6496 H         1 <0>         0.1024
     44 H11         6.1561    0.3202   -3.3051 H         1 <0>         0.1014
     45 H12         7.0707    1.8132   -1.5493 H         1 <0>         0.0902
     46 H13         8.7108    1.2137   -1.8938 H         1 <0>         0.0890
     47 H14         8.5238    2.0408   -4.2239 H         1 <0>         0.1264
     48 H15         6.8836    2.6404   -3.8794 H         1 <0>         0.1292
     49 H16         6.6566    4.8161   -2.3165 H         1 <0>         0.2235
     50 H17         8.4174    6.6223   -1.5895 H         1 <0>         0.2246
     51 H18        10.5606    3.3660   -3.1593 H         1 <0>         0.2600
     52 H19        10.2282   -5.6129   -0.1739 H         1 <0>         0.3952
     53 H20         3.5977   -3.8372    3.2881 H         1 <0>         0.4346
     54 H21        10.6933    5.6452   -2.1469 H         1 <0>         0.4663
@<TRIPOS>BOND
     1    1    6 ar
     2    1    2 ar
     3    1   34 1
     4    2    3 ar
     5    2   35 1
     6    3    4 ar
     7    3   36 1
     8    4    5 ar
     9    4    7 1
    10    5    6 ar
    11    5   37 1
    12    6   38 1
    13    7   28 ar
    14    7    8 ar
    15    8    9 ar
    16    8   39 1
    17    9   17 1
    18    9   10 ar
    19   10   11 1
    20   10   27 ar
    21   11   16 ar
    22   11   12 ar
    23   12   13 ar
    24   12   40 1
    25   13   14 ar
    26   13   26 1
    27   14   15 ar
    28   14   41 1
    29   15   16 ar
    30   15   42 1
    31   16   17 1
    32   17   18 1
    33   18   19 1
    34   18   43 1
    35   18   44 1
    36   19   20 1
    37   19   45 1
    38   19   46 1
    39   20   21 1
    40   20   47 1
    41   20   48 1
    42   21   25 1
    43   21   22 1
    44   22   23 2
    45   22   49 1
    46   23   24 1
    47   23   50 1
    48   24   25 2
    49   24   54 1
    50   25   51 1
    51   26   52 1
    52   27   32 1
    53   27   28 ar
    54   28   29 1
    55   29   30 2
    56   29   31 am
    57   31   32 am
    58   31   53 1
    59   32   33 2
@<TRIPOS>MOLECULE
CHEMBL519238
   53    58     0     0     0
SMALL
USER_CHARGES

@<TRIPOS>ATOM
      1 C1         -0.0167    1.3792    0.0096 C.ar      1 <0>        -0.1058
      2 C2          1.1685    2.0927    0.0021 C.ar      1 <0>        -0.1237
      3 C3          2.3774    1.4276   -0.0135 C.ar      1 <0>        -0.0972
      4 C4          2.4028    0.0333   -0.0212 C.ar      1 <0>        -0.0699
      5 C5          1.2047   -0.6805   -0.0131 C.ar      1 <0>        -0.0697
      6 C6          0.0021   -0.0041    0.0020 C.ar      1 <0>        -0.1184
      7 C7          3.6973   -0.6869   -0.0384 C.ar      1 <0>         0.0680
      8 C8          4.6754   -0.3384   -0.9678 C.ar      1 <0>        -0.1142
      9 C9          5.8922   -1.0065   -0.9938 C.ar      1 <0>         0.1765
     10 C10         6.1423   -2.0459   -0.0730 C.ar      1 <0>        -0.0336
     11 C11         7.4991   -2.5393   -0.3607 C.ar      1 <0>        -0.0944
     12 C12         8.2934   -3.5392    0.1999 C.ar      1 <0>        -0.0743
     13 C13         9.5594   -3.7717   -0.3037 C.ar      1 <0>         0.0793
     14 C14        10.0393   -3.0111   -1.3648 C.ar      1 <0>        -0.0953
     15 C15         9.2614   -2.0209   -1.9249 C.ar      1 <0>        -0.1253
     16 C16         7.9844   -1.7730   -1.4314 C.ar      1 <0>         0.1404
     17 N1          7.0072   -0.8611   -1.7955 N.pl3     1 <0>        -0.4982
     18 C17         7.1380    0.1182   -2.8772 C.3       1 <0>         0.1160
     19 C18         7.7289    1.4156   -2.3217 C.3       1 <0>        -0.1585
     20 C19         7.8655    2.4384   -3.4514 C.3       1 <0>         0.1091
     21 N2          8.4313    3.6807   -2.9196 N.pl3     1 <0>        -0.4615
     22 C20         7.7300    4.7383   -2.4065 C.2       1 <0>        -0.0570
     23 C21         8.6358    5.6628   -2.0345 C.2       1 <0>        -0.0268
     24 N3          9.8569    5.1828   -2.3130 N.2       1 <0>        -0.4932
     25 C22         9.7425    3.9939   -2.8386 C.2       1 <0>         0.1826
     26 O1         10.3376   -4.7456    0.2396 O.3       1 <0>        -0.4928
     27 C23         5.1676   -2.4003    0.8608 C.ar      1 <0>        -0.0776
     28 C24         3.9391   -1.7132    0.8827 C.ar      1 <0>        -0.1642
     29 C25         3.1555   -2.3189    1.9736 C.2       1 <0>         0.5797
     30 O2          2.0310   -1.9966    2.3024 O.2       1 <0>        -0.4519
     31 N4          3.8925   -3.2886    2.5445 N.am      1 <0>        -0.6803
     32 C26         5.0881   -3.4048    1.9386 C.2       1 <0>         0.5785
     33 O3          5.9616   -4.1941    2.2386 O.2       1 <0>        -0.4552
     34 H1         -0.9604    1.9042    0.0260 H         1 <0>         0.1244
     35 H2          1.1476    3.1725    0.0082 H         1 <0>         0.1258
     36 H3          3.3020    1.9857   -0.0200 H         1 <0>         0.1236
     37 H4          1.2181   -1.7604   -0.0194 H         1 <0>         0.1216
     38 H5         -0.9264   -0.5557    0.0079 H         1 <0>         0.1260
     39 H6          4.4855    0.4570   -1.6732 H         1 <0>         0.1436
     40 H7          7.9210   -4.1292    1.0243 H         1 <0>         0.1477
     41 H8         11.0297   -3.1978   -1.7528 H         1 <0>         0.1400
     42 H9          9.6439   -1.4363   -2.7485 H         1 <0>         0.1318
     43 H10         7.7963   -0.2794   -3.6496 H         1 <0>         0.0988
     44 H11         6.1561    0.3202   -3.3051 H         1 <0>         0.0969
     45 H12         7.0707    1.8132   -1.5493 H         1 <0>         0.0806
     46 H13         8.7108    1.2137   -1.8938 H         1 <0>         0.0822
     47 H14         8.5238    2.0408   -4.2239 H         1 <0>         0.0989
     48 H15         6.8836    2.6404   -3.8794 H         1 <0>         0.0967
     49 H16         6.6565    4.8165   -2.3174 H         1 <0>         0.1738
     50 H17         8.4173    6.6225   -1.5900 H         1 <0>         0.1700
     51 H18        10.5606    3.3656   -3.1584 H         1 <0>         0.2036
     52 H19        10.2282   -5.6129   -0.1739 H         1 <0>         0.3909
     53 H20         3.5977   -3.8372    3.2881 H         1 <0>         0.4319
@<TRIPOS>BOND
     1    1    6 ar
     2    1    2 ar
     3    1   34 1
     4    2    3 ar
     5    2   35 1
     6    3    4 ar
     7    3   36 1
     8    4    5 ar
     9    4    7 1
    10    5    6 ar
    11    5   37 1
    12    6   38 1
    13    7   28 ar
    14    7    8 ar
    15    8    9 ar
    16    8   39 1
    17    9   17 1
    18    9   10 ar
    19   10   11 1
    20   10   27 ar
    21   11   16 ar
    22   11   12 ar
    23   12   13 ar
    24   12   40 1
    25   13   14 ar
    26   13   26 1
    27   14   15 ar
    28   14   41 1
    29   15   16 ar
    30   15   42 1
    31   16   17 1
    32   17   18 1
    33   18   19 1
    34   18   43 1
    35   18   44 1
    36   19   20 1
    37   19   45 1
    38   19   46 1
    39   20   21 1
    40   20   47 1
    41   20   48 1
    42   21   25 1
    43   21   22 1
    44   22   23 2
    45   22   49 1
    46   23   24 1
    47   23   50 1
    48   24   25 2
    49   25   51 1
    50   26   52 1
    51   27   32 1
    52   27   28 ar
    53   28   29 1
    54   29   30 2
    55   29   31 am
    56   31   32 am
    57   31   53 1
    58   32   33 2
@<TRIPOS>MOLECULE
CHEMBL486728
   52    57     0     0     0
SMALL
USER_CHARGES

@<TRIPOS>ATOM
      1 C1         -0.0167    1.3790    0.0096 C.ar      1 <0>        -0.0827
      2 C2          1.1680    2.0931    0.0021 C.ar      1 <0>        -0.1037
      3 C3          2.3785    1.4284   -0.0135 C.ar      1 <0>        -0.0034
      4 C4          2.4047    0.0329   -0.0212 C.ar      1 <0>        -0.0435
      5 C5          1.2056   -0.6814   -0.0131 C.ar      1 <0>        -0.0036
      6 C6          0.0021   -0.0041    0.0020 C.ar      1 <0>        -0.1038
      7 Cl1         1.2269   -2.4173   -0.0233 Cl        1 <0>        -0.0478
      8 C7          3.6990   -0.6866   -0.0385 C.ar      1 <0>         0.0570
      9 C8          4.3172   -1.0365    1.1608 C.ar      1 <0>        -0.0990
     10 C9          5.5303   -1.7113    1.1570 C.ar      1 <0>         0.1746
     11 C10         6.1436   -2.0466   -0.0687 C.ar      1 <0>        -0.0233
     12 C11         7.3954   -2.7439    0.2692 C.ar      1 <0>        -0.0932
     13 C12         8.4152   -3.3067   -0.4977 C.ar      1 <0>        -0.0727
     14 C13         9.4915   -3.9072    0.1280 C.ar      1 <0>         0.0806
     15 C14         9.5569   -3.9500    1.5167 C.ar      1 <0>        -0.0935
     16 C15         8.5535   -3.3970    2.2825 C.ar      1 <0>        -0.1258
     17 C16         7.4627   -2.7879    1.6702 C.ar      1 <0>         0.1407
     18 N1          6.3366   -2.1645    2.1825 N.pl3     1 <0>        -0.4986
     19 C17         6.0430   -2.0082    3.6092 C.3       1 <0>         0.1271
     20 C18         5.2400   -3.2147    4.0998 C.3       1 <0>        -0.1696
     21 C19         4.9379   -3.0539    5.5674 C.2       1 <0>         0.5411
     22 O1          5.3251   -2.0749    6.1602 O.2       1 <0>        -0.4628
     23 N2          4.2358   -4.0022    6.2187 N.am      1 <0>        -0.4714
     24 C20         3.8808   -3.9911    7.5479 C.2       1 <0>        -0.0299
     25 C21         3.1922   -5.1230    7.7756 C.2       1 <0>        -0.0125
     26 N3          3.1222   -5.8135    6.6260 N.2       1 <0>        -0.4655
     27 C22         3.7362   -5.1539    5.6847 C.2       1 <0>         0.2079
     28 O2         10.4881   -4.4577   -0.6157 O.3       1 <0>        -0.4927
     29 C23         5.5309   -1.6996   -1.2735 C.ar      1 <0>        -0.0788
     30 C24         4.2979   -1.0200   -1.2595 C.ar      1 <0>        -0.1466
     31 C25         3.9316   -0.8164   -2.6717 C.2       1 <0>         0.5799
     32 O3          2.9288   -0.2579   -3.0706 O.2       1 <0>        -0.4501
     33 N4          4.8926   -1.3513   -3.4461 N.am      1 <0>        -0.6796
     34 C26         5.8745   -1.8840   -2.6965 C.2       1 <0>         0.5798
     35 O4          6.8706   -2.4357   -3.1201 O.2       1 <0>        -0.4539
     36 Cl2         3.8641    2.3266   -0.0240 Cl        1 <0>        -0.0472
     37 H1         -0.9605    1.9037    0.0260 H         1 <0>         0.1465
     38 H2          1.1462    3.1729    0.0082 H         1 <0>         0.1451
     39 H3         -0.9265   -0.5555    0.0083 H         1 <0>         0.1451
     40 H4          3.8492   -0.7804    2.0998 H         1 <0>         0.1438
     41 H5          8.3641   -3.2737   -1.5760 H         1 <0>         0.1486
     42 H6         10.4009   -4.4209    1.9987 H         1 <0>         0.1404
     43 H7          8.6140   -3.4364    3.3601 H         1 <0>         0.1321
     44 H8          6.9769   -1.9421    4.1673 H         1 <0>         0.1073
     45 H9          5.4626   -1.0985    3.7632 H         1 <0>         0.1051
     46 H10         4.3060   -3.2807    3.5417 H         1 <0>         0.1189
     47 H11         5.8204   -4.1243    3.9458 H         1 <0>         0.1202
     48 H12         4.1113   -3.2213    8.2695 H         1 <0>         0.1872
     49 H13         2.7677   -5.4253    8.7215 H         1 <0>         0.1830
     50 H14         3.8350   -5.4672    4.6559 H         1 <0>         0.2193
     51 H15        11.2054   -3.8447   -0.8274 H         1 <0>         0.3914
     52 H16         4.8830   -1.3462   -4.4161 H         1 <0>         0.4326
@<TRIPOS>BOND
     1    1    6 ar
     2    1    2 ar
     3    1   37 1
     4    2    3 ar
     5    2   38 1
     6    3    4 ar
     7    3   36 1
     8    4    5 ar
     9    4    8 1
    10    5    6 ar
    11    5    7 1
    12    6   39 1
    13    8   30 ar
    14    8    9 ar
    15    9   10 ar
    16    9   40 1
    17   10   18 1
    18   10   11 ar
    19   11   12 1
    20   11   29 ar
    21   12   17 ar
    22   12   13 ar
    23   13   14 ar
    24   13   41 1
    25   14   15 ar
    26   14   28 1
    27   15   16 ar
    28   15   42 1
    29   16   17 ar
    30   16   43 1
    31   17   18 1
    32   18   19 1
    33   19   20 1
    34   19   44 1
    35   19   45 1
    36   20   21 1
    37   20   46 1
    38   20   47 1
    39   21   22 2
    40   21   23 am
    41   23   27 1
    42   23   24 1
    43   24   25 2
    44   24   48 1
    45   25   26 1
    46   25   49 1
    47   26   27 2
    48   27   50 1
    49   28   51 1
    50   29   34 1
    51   29   30 ar
    52   30   31 1
    53   31   32 2
    54   31   33 am
    55   33   34 am
    56   33   52 1
    57   34   35 2
@<TRIPOS>MOLECULE
CHEMBL486661
   59    64     0     0     0
SMALL
USER_CHARGES

@<TRIPOS>ATOM
      1 C1         -0.0166    1.3753    0.0096 C.ar      1 <0>        -0.1160
      2 C2          1.1702    2.0869    0.0021 C.ar      1 <0>        -0.0958
      3 C3          2.3823    1.4213   -0.0135 C.ar      1 <0>        -0.1087
      4 C4          2.4147    0.0403   -0.0213 C.ar      1 <0>        -0.0002
      5 C5          1.2208   -0.6823   -0.0133 C.ar      1 <0>        -0.0540
      6 C6          0.0021   -0.0041    0.0020 C.ar      1 <0>        -0.0866
      7 C7          1.2476   -2.1633   -0.0220 C.ar      1 <0>         0.0578
      8 C8          0.7443   -2.8623   -1.1176 C.ar      1 <0>        -0.1063
      9 C9          0.7641   -4.2503   -1.1370 C.ar      1 <0>         0.1755
     10 C10         1.2978   -4.9603   -0.0406 C.ar      1 <0>        -0.0298
     11 C11         1.1711   -6.3898   -0.3691 C.ar      1 <0>        -0.0962
     12 C12         1.5141   -7.5614    0.3052 C.ar      1 <0>        -0.0740
     13 C13         1.2616   -8.7878   -0.2800 C.ar      1 <0>         0.0776
     14 C14         0.6683   -8.8531   -1.5363 C.ar      1 <0>        -0.0953
     15 C15         0.3265   -7.7006   -2.2102 C.ar      1 <0>        -0.1241
     16 C16         0.5722   -6.4571   -1.6364 C.ar      1 <0>         0.1431
     17 N1          0.3368   -5.1656   -2.0786 N.pl3     1 <0>        -0.4957
     18 C17        -0.2788   -4.8200   -3.3623 C.3       1 <0>         0.1135
     19 C18         0.8102   -4.6727   -4.4269 C.3       1 <0>        -0.1381
     20 C19         0.1673   -4.3117   -5.7675 C.3       1 <0>         0.0589
     21 N2          1.2129   -4.1703   -6.7897 N.3       1 <0>        -0.5364
     22 C20         2.0780   -3.0169   -6.5023 C.3       1 <0>         0.0144
     23 C21         3.1864   -2.9422   -7.5558 C.3       1 <0>         0.0624
     24 O1          2.5966   -2.8659   -8.8564 O.3       1 <0>        -0.3844
     25 C22         1.7481   -3.9737   -9.1697 C.3       1 <0>         0.0623
     26 C23         0.6252   -4.0589   -8.1326 C.3       1 <0>         0.0179
     27 O2          1.5943   -9.9330    0.3737 O.3       1 <0>        -0.4931
     28 C24         1.8044   -4.2673    1.0595 C.ar      1 <0>        -0.0797
     29 C25         1.7840   -2.8596    1.0679 C.ar      1 <0>        -0.1523
     30 C26         2.3884   -2.4533    2.3485 C.2       1 <0>         0.5793
     31 O3          2.5449   -1.3094    2.7274 O.2       1 <0>        -0.4482
     32 N3          2.7379   -3.5599    3.0287 N.am      1 <0>        -0.6807
     33 C27         2.4184   -4.6701    2.3393 C.2       1 <0>         0.5790
     34 O4          2.6139   -5.8124    2.7038 O.2       1 <0>        -0.4562
     35 Cl1         3.9368   -0.7943   -0.0415 Cl        1 <0>        -0.0607
     36 H1         -0.9598    1.9012    0.0260 H         1 <0>         0.1333
     37 H2          1.1498    3.1667    0.0081 H         1 <0>         0.1347
     38 H3          3.3052    1.9822   -0.0201 H         1 <0>         0.1369
     39 H4         -0.9252   -0.5577    0.0083 H         1 <0>         0.1341
     40 H5          0.3356   -2.3202   -1.9575 H         1 <0>         0.1433
     41 H6          1.9754   -7.5105    1.2804 H         1 <0>         0.1472
     42 H7          0.4742   -9.8149   -1.9876 H         1 <0>         0.1393
     43 H8         -0.1334   -7.7627   -3.1854 H         1 <0>         0.1323
     44 H9         -0.9710   -5.6085   -3.6574 H         1 <0>         0.0957
     45 H10        -0.8204   -3.8791   -3.2640 H         1 <0>         0.0917
     46 H11         1.5024   -3.8841   -4.1319 H         1 <0>         0.0723
     47 H12         1.3518   -5.6135   -4.5253 H         1 <0>         0.0827
     48 H13        -0.5249   -5.1003   -6.0626 H         1 <0>         0.0808
     49 H14        -0.3743   -3.3709   -5.6692 H         1 <0>         0.0397
     50 H15         1.4862   -2.1019   -6.5311 H         1 <0>         0.0446
     51 H16         2.5226   -3.1327   -5.5139 H         1 <0>         0.0879
     52 H17         3.7963   -2.0560   -7.3802 H         1 <0>         0.0994
     53 H18         3.8108   -3.8332   -7.4910 H         1 <0>         0.0606
     54 H19         1.3179   -3.8336  -10.1614 H         1 <0>         0.0998
     55 H20         2.3307   -4.8948   -9.1519 H         1 <0>         0.0608
     56 H21         0.0093   -4.9353   -8.3342 H         1 <0>         0.0878
     57 H22         0.0102   -3.1606   -8.1874 H         1 <0>         0.0445
     58 H23         0.8923  -10.2803    0.9408 H         1 <0>         0.3901
     59 H24         3.1568   -3.5579    3.9036 H         1 <0>         0.4314
@<TRIPOS>BOND
     1    1    6 ar
     2    1    2 ar
     3    1   36 1
     4    2    3 ar
     5    2   37 1
     6    3    4 ar
     7    3   38 1
     8    4    5 ar
     9    4   35 1
    10    5    6 ar
    11    5    7 1
    12    6   39 1
    13    7   29 ar
    14    7    8 ar
    15    8    9 ar
    16    8   40 1
    17    9   17 1
    18    9   10 ar
    19   10   11 1
    20   10   28 ar
    21   11   16 ar
    22   11   12 ar
    23   12   13 ar
    24   12   41 1
    25   13   14 ar
    26   13   27 1
    27   14   15 ar
    28   14   42 1
    29   15   16 ar
    30   15   43 1
    31   16   17 1
    32   17   18 1
    33   18   19 1
    34   18   44 1
    35   18   45 1
    36   19   20 1
    37   19   46 1
    38   19   47 1
    39   20   21 1
    40   20   48 1
    41   20   49 1
    42   21   26 1
    43   21   22 1
    44   22   23 1
    45   22   50 1
    46   22   51 1
    47   23   24 1
    48   23   52 1
    49   23   53 1
    50   24   25 1
    51   25   26 1
    52   25   54 1
    53   25   55 1
    54   26   56 1
    55   26   57 1
    56   27   58 1
    57   28   33 1
    58   28   29 ar
    59   29   30 1
    60   30   31 2
    61   30   32 am
    62   32   33 am
    63   32   59 1
    64   33   34 2
@<TRIPOS>MOLECULE
CHEMBL486661
   60    65     0     0     0
SMALL
USER_CHARGES

@<TRIPOS>ATOM
      1 C1         -0.0166    1.3753    0.0096 C.ar      1 <0>        -0.1144
      2 C2          1.1702    2.0869    0.0021 C.ar      1 <0>        -0.0917
      3 C3          2.3823    1.4213   -0.0135 C.ar      1 <0>        -0.1074
      4 C4          2.4147    0.0403   -0.0213 C.ar      1 <0>        -0.0014
      5 C5          1.2208   -0.6823   -0.0133 C.ar      1 <0>        -0.0615
      6 C6          0.0021   -0.0041    0.0020 C.ar      1 <0>        -0.0865
      7 C7          1.2476   -2.1633   -0.0220 C.ar      1 <0>         0.0631
      8 C8          0.7443   -2.8623   -1.1176 C.ar      1 <0>        -0.1111
      9 C9          0.7641   -4.2503   -1.1370 C.ar      1 <0>         0.1676
     10 C10         1.2978   -4.9603   -0.0406 C.ar      1 <0>        -0.0276
     11 C11         1.1711   -6.3898   -0.3691 C.ar      1 <0>        -0.0899
     12 C12         1.5141   -7.5614    0.3052 C.ar      1 <0>        -0.0732
     13 C13         1.2616   -8.7878   -0.2800 C.ar      1 <0>         0.0879
     14 C14         0.6683   -8.8531   -1.5363 C.ar      1 <0>        -0.0943
     15 C15         0.3265   -7.7006   -2.2102 C.ar      1 <0>        -0.1288
     16 C16         0.5722   -6.4571   -1.6364 C.ar      1 <0>         0.1330
     17 N1          0.3368   -5.1656   -2.0786 N.pl3     1 <0>        -0.5039
     18 C17        -0.2788   -4.8200   -3.3623 C.3       1 <0>         0.1222
     19 C18         0.8102   -4.6727   -4.4269 C.3       1 <0>        -0.1773
     20 C19         0.1673   -4.3117   -5.7675 C.3       1 <0>        -0.0056
     21 N2          1.2129   -4.1703   -6.7897 N.4       1 <0>        -0.3853
     22 C20         2.0755   -3.0292   -6.4536 C.3       1 <0>        -0.0494
     23 C21         3.1641   -2.8841   -7.5199 C.3       1 <0>         0.0362
     24 O1          2.5502   -2.7191   -8.8011 O.3       1 <0>        -0.3553
     25 C22         1.6805   -3.7953   -9.1636 C.3       1 <0>         0.0351
     26 C23         0.5891   -3.9420   -8.1004 C.3       1 <0>        -0.0432
     27 O2          1.5943   -9.9330    0.3737 O.3       1 <0>        -0.4921
     28 C24         1.8044   -4.2673    1.0595 C.ar      1 <0>        -0.0753
     29 C25         1.7840   -2.8596    1.0679 C.ar      1 <0>        -0.1435
     30 C26         2.3884   -2.4533    2.3485 C.2       1 <0>         0.5757
     31 O3          2.5449   -1.3094    2.7274 O.2       1 <0>        -0.4407
     32 N3          2.7379   -3.5599    3.0287 N.am      1 <0>        -0.6788
     33 C27         2.4184   -4.6701    2.3393 C.2       1 <0>         0.5764
     34 O4          2.6139   -5.8124    2.7038 O.2       1 <0>        -0.4513
     35 Cl1         3.9368   -0.7943   -0.0415 Cl        1 <0>        -0.0615
     36 H1         -0.9598    1.9012    0.0260 H         1 <0>         0.1354
     37 H2          1.1498    3.1667    0.0081 H         1 <0>         0.1374
     38 H3          3.3052    1.9822   -0.0201 H         1 <0>         0.1388
     39 H4         -0.9252   -0.5577    0.0083 H         1 <0>         0.1342
     40 H5          0.3356   -2.3202   -1.9575 H         1 <0>         0.1414
     41 H6          1.9754   -7.5105    1.2804 H         1 <0>         0.1506
     42 H7          0.4742   -9.8149   -1.9876 H         1 <0>         0.1418
     43 H8         -0.1334   -7.7627   -3.1854 H         1 <0>         0.1287
     44 H9         -0.9710   -5.6085   -3.6574 H         1 <0>         0.1038
     45 H10        -0.8204   -3.8791   -3.2640 H         1 <0>         0.1019
     46 H11         1.5024   -3.8841   -4.1319 H         1 <0>         0.0963
     47 H12         1.3518   -5.6135   -4.5253 H         1 <0>         0.0978
     48 H13        -0.5249   -5.1003   -6.0626 H         1 <0>         0.1378
     49 H14        -0.3743   -3.3709   -5.6692 H         1 <0>         0.1357
     50 H15         1.4771   -2.1188   -6.4187 H         1 <0>         0.1411
     51 H16         2.5388   -3.1975   -5.4814 H         1 <0>         0.1424
     52 H17         3.7791   -2.0125   -7.2959 H         1 <0>         0.1430
     53 H18         3.7877   -3.7781   -7.5274 H         1 <0>         0.0816
     54 H19         1.2217   -3.5831  -10.1293 H         1 <0>         0.1432
     55 H20         2.2533   -4.7205   -9.2274 H         1 <0>         0.0817
     56 H21        -0.0510   -4.7881   -8.3507 H         1 <0>         0.1439
     57 H22        -0.0088   -3.0313   -8.0649 H         1 <0>         0.1403
     58 H23         0.8923  -10.2803    0.9408 H         1 <0>         0.3959
     59 H24         3.1568   -3.5579    3.9036 H         1 <0>         0.4350
     60 H25         1.7670   -5.0128   -6.8229 H         1 <0>         0.4242
@<TRIPOS>BOND
     1    1    6 ar
     2    1    2 ar
     3    1   36 1
     4    2    3 ar
     5    2   37 1
     6    3    4 ar
     7    3   38 1
     8    4    5 ar
     9    4   35 1
    10    5    6 ar
    11    5    7 1
    12    6   39 1
    13    7   29 ar
    14    7    8 ar
    15    8    9 ar
    16    8   40 1
    17    9   17 1
    18    9   10 ar
    19   10   11 1
    20   10   28 ar
    21   11   16 ar
    22   11   12 ar
    23   12   13 ar
    24   12   41 1
    25   13   14 ar
    26   13   27 1
    27   14   15 ar
    28   14   42 1
    29   15   16 ar
    30   15   43 1
    31   16   17 1
    32   17   18 1
    33   18   19 1
    34   18   44 1
    35   18   45 1
    36   19   20 1
    37   19   46 1
    38   19   47 1
    39   20   21 1
    40   20   48 1
    41   20   49 1
    42   21   26 1
    43   21   22 1
    44   21   60 1
    45   22   23 1
    46   22   50 1
    47   22   51 1
    48   23   24 1
    49   23   52 1
    50   23   53 1
    51   24   25 1
    52   25   26 1
    53   25   54 1
    54   25   55 1
    55   26   56 1
    56   26   57 1
    57   27   58 1
    58   28   33 1
    59   28   29 ar
    60   29   30 1
    61   30   31 2
    62   30   32 am
    63   32   33 am
    64   32   59 1
    65   33   34 2
@<TRIPOS>MOLECULE
CHEMBL461134
   58    63     0     0     0
SMALL
USER_CHARGES

@<TRIPOS>ATOM
      1 C1         -0.0167    1.3786    0.0096 C.ar      1 <0>        -0.1778
      2 C2          1.1695    2.0894    0.0021 C.ar      1 <0>        -0.0725
      3 C3          2.3774    1.4200   -0.0130 C.ar      1 <0>        -0.1950
      4 C4          2.3998    0.0311   -0.0206 C.ar      1 <0>         0.2130
      5 C5          1.2064   -0.6798   -0.0130 C.ar      1 <0>        -0.1979
      6 C6          0.0021   -0.0041    0.0020 C.ar      1 <0>        -0.0730
      7 N1          3.6196   -0.6492   -0.0363 N.pl3     1 <0>        -0.7500
      8 C7          3.6414   -2.1140   -0.0443 C.3       1 <0>         0.1301
      9 C8          5.0913   -2.6024   -0.0613 C.3       1 <0>        -0.1529
     10 C9          5.1140   -4.1322   -0.0697 C.3       1 <0>         0.1157
     11 N2          6.5023   -4.5998   -0.0859 N.pl3     1 <0>        -0.4961
     12 C10         7.2426   -4.8406   -1.2319 C.ar      1 <0>         0.1429
     13 C11         6.9358   -4.7275   -2.5843 C.ar      1 <0>        -0.1250
     14 C12         7.8817   -5.0399   -3.5367 C.ar      1 <0>        -0.0947
     15 C13         9.1494   -5.4704   -3.1600 C.ar      1 <0>         0.0782
     16 C14         9.4723   -5.5885   -1.8213 C.ar      1 <0>        -0.0733
     17 C15         8.5215   -5.2744   -0.8507 C.ar      1 <0>        -0.0961
     18 C16         8.5371   -5.2908    0.6213 C.ar      1 <0>        -0.0261
     19 C17         7.2608   -4.8576    1.0390 C.ar      1 <0>         0.1767
     20 C18         6.9731   -4.7639    2.3938 C.ar      1 <0>        -0.0976
     21 C19         7.9374   -5.0906    3.3458 C.ar      1 <0>         0.0559
     22 C20         9.2078   -5.5173    2.9401 C.ar      1 <0>        -0.1490
     23 C21         9.5061   -5.6245    1.5682 C.ar      1 <0>        -0.0796
     24 C22        10.9028   -6.0941    1.4935 C.2       1 <0>         0.5797
     25 O1         11.5296   -6.2968    0.4727 O.2       1 <0>        -0.4547
     26 N3         11.3659   -6.2594    2.7457 N.am      1 <0>        -0.6799
     27 C23        10.4289   -5.9300    3.6532 C.2       1 <0>         0.5802
     28 O2         10.5631   -5.9776    4.8600 O.2       1 <0>        -0.4513
     29 C24         7.6180   -4.9858    4.7881 C.ar      1 <0>        -0.0417
     30 C25         7.8468   -3.7907    5.4718 C.ar      1 <0>        -0.0036
     31 C26         7.5467   -3.6998    6.8168 C.ar      1 <0>        -0.1040
     32 C27         7.0209   -4.7900    7.4865 C.ar      1 <0>        -0.0833
     33 C28         6.7921   -5.9776    6.8152 C.ar      1 <0>        -0.1037
     34 C29         7.0814   -6.0801    5.4685 C.ar      1 <0>        -0.0039
     35 Cl1         6.7856   -7.5688    4.6259 Cl        1 <0>        -0.0473
     36 Cl2         8.5076   -2.4216    4.6335 Cl        1 <0>        -0.0484
     37 O3         10.0727   -5.7762   -4.1105 O.3       1 <0>        -0.4928
     38 H1         -0.9598    1.9046    0.0260 H         1 <0>         0.1183
     39 H2          1.1513    3.1692    0.0077 H         1 <0>         0.1209
     40 H3          3.3034    1.9757   -0.0192 H         1 <0>         0.1183
     41 H4          1.2204   -1.7597   -0.0193 H         1 <0>         0.1187
     42 H5         -0.9261   -0.5561    0.0079 H         1 <0>         0.1204
     43 H6          4.4523   -0.1517   -0.0419 H         1 <0>         0.3999
     44 H7          3.1419   -2.4897    0.8486 H         1 <0>         0.0632
     45 H8          3.1243   -2.4802   -0.9312 H         1 <0>         0.0633
     46 H9          5.5908   -2.2267   -0.9543 H         1 <0>         0.0797
     47 H10         5.6084   -2.2362    0.8256 H         1 <0>         0.0790
     48 H11         4.6145   -4.5079    0.8233 H         1 <0>         0.0965
     49 H12         4.5969   -4.4984   -0.9566 H         1 <0>         0.0986
     50 H13         5.9545   -4.3945   -2.8883 H         1 <0>         0.1323
     51 H14         7.6362   -4.9500   -4.5846 H         1 <0>         0.1396
     52 H15        10.4565   -5.9230   -1.5282 H         1 <0>         0.1478
     53 H16         5.9951   -4.4350    2.7125 H         1 <0>         0.1437
     54 H17        12.2609   -6.5623    2.9652 H         1 <0>         0.4322
     55 H18         7.7232   -2.7757    7.3471 H         1 <0>         0.1447
     56 H19         6.7883   -4.7138    8.5384 H         1 <0>         0.1463
     57 H20         6.3820   -6.8252    7.3442 H         1 <0>         0.1449
     58 H21        10.6224   -5.0277   -4.3801 H         1 <0>         0.3904
@<TRIPOS>BOND
     1    1    6 ar
     2    1    2 ar
     3    1   38 1
     4    2    3 ar
     5    2   39 1
     6    3    4 ar
     7    3   40 1
     8    4    5 ar
     9    4    7 1
    10    5    6 ar
    11    5   41 1
    12    6   42 1
    13    7    8 1
    14    7   43 1
    15    8    9 1
    16    8   44 1
    17    8   45 1
    18    9   10 1
    19    9   46 1
    20    9   47 1
    21   10   11 1
    22   10   48 1
    23   10   49 1
    24   11   19 1
    25   11   12 1
    26   12   17 ar
    27   12   13 ar
    28   13   14 ar
    29   13   50 1
    30   14   15 ar
    31   14   51 1
    32   15   16 ar
    33   15   37 1
    34   16   17 ar
    35   16   52 1
    36   17   18 1
    37   18   23 ar
    38   18   19 ar
    39   19   20 ar
    40   20   21 ar
    41   20   53 1
    42   21   22 ar
    43   21   29 1
    44   22   27 1
    45   22   23 ar
    46   23   24 1
    47   24   25 2
    48   24   26 am
    49   26   27 am
    50   26   54 1
    51   27   28 2
    52   29   34 ar
    53   29   30 ar
    54   30   31 ar
    55   30   36 1
    56   31   32 ar
    57   31   55 1
    58   32   33 ar
    59   32   56 1
    60   33   34 ar
    61   33   57 1
    62   34   35 1
    63   37   58 1
@<TRIPOS>MOLECULE
CHEMBL471157
   44    48     0     0     0
SMALL
USER_CHARGES

@<TRIPOS>ATOM
      1 C1         -0.0167    1.3790    0.0096 C.ar      1 <0>        -0.0831
      2 C2          1.1680    2.0931    0.0021 C.ar      1 <0>        -0.1037
      3 C3          2.3785    1.4284   -0.0135 C.ar      1 <0>        -0.0033
      4 C4          2.4047    0.0329   -0.0212 C.ar      1 <0>        -0.0420
      5 C5          1.2056   -0.6814   -0.0131 C.ar      1 <0>        -0.0035
      6 C6          0.0021   -0.0041    0.0020 C.ar      1 <0>        -0.1039
      7 Cl1         1.2269   -2.4173   -0.0233 Cl        1 <0>        -0.0484
      8 C7          3.6990   -0.6866   -0.0385 C.ar      1 <0>         0.0556
      9 C8          4.3172   -1.0365    1.1608 C.ar      1 <0>        -0.0970
     10 C9          5.5303   -1.7113    1.1570 C.ar      1 <0>         0.1752
     11 C10         6.1436   -2.0466   -0.0687 C.ar      1 <0>        -0.0247
     12 C11         7.3954   -2.7439    0.2692 C.ar      1 <0>        -0.0949
     13 C12         8.4152   -3.3067   -0.4977 C.ar      1 <0>        -0.0732
     14 C13         9.4915   -3.9072    0.1280 C.ar      1 <0>         0.0790
     15 C14         9.5569   -3.9500    1.5167 C.ar      1 <0>        -0.0943
     16 C15         8.5535   -3.3970    2.2825 C.ar      1 <0>        -0.1247
     17 C16         7.4627   -2.7879    1.6702 C.ar      1 <0>         0.1415
     18 N1          6.3366   -2.1645    2.1825 N.pl3     1 <0>        -0.4948
     19 C17         6.0430   -2.0082    3.6092 C.3       1 <0>         0.1124
     20 C18         5.2400   -3.2147    4.0998 C.3       1 <0>         0.0579
     21 O1          4.9535   -3.0622    5.4915 O.3       1 <0>        -0.5680
     22 O2         10.4881   -4.4577   -0.6157 O.3       1 <0>        -0.4928
     23 C19         5.5309   -1.6996   -1.2735 C.ar      1 <0>        -0.0797
     24 C20         4.2979   -1.0200   -1.2595 C.ar      1 <0>        -0.1481
     25 C21         3.9316   -0.8164   -2.6717 C.2       1 <0>         0.5804
     26 O3          2.9288   -0.2579   -3.0706 O.2       1 <0>        -0.4510
     27 N2          4.8926   -1.3513   -3.4461 N.am      1 <0>        -0.6797
     28 C22         5.8745   -1.8840   -2.6965 C.2       1 <0>         0.5801
     29 O4          6.8706   -2.4357   -3.1201 O.2       1 <0>        -0.4545
     30 Cl2         3.8641    2.3266   -0.0240 Cl        1 <0>        -0.0474
     31 H1         -0.9605    1.9037    0.0260 H         1 <0>         0.1464
     32 H2          1.1462    3.1729    0.0082 H         1 <0>         0.1450
     33 H3         -0.9265   -0.5555    0.0083 H         1 <0>         0.1448
     34 H4          3.8492   -0.7804    2.0998 H         1 <0>         0.1449
     35 H5          8.3641   -3.2737   -1.5760 H         1 <0>         0.1483
     36 H6         10.4009   -4.4209    1.9987 H         1 <0>         0.1404
     37 H7          8.6140   -3.4364    3.3601 H         1 <0>         0.1334
     38 H8          6.9769   -1.9421    4.1673 H         1 <0>         0.1030
     39 H9          5.4626   -1.0985    3.7632 H         1 <0>         0.1010
     40 H10         4.3060   -3.2807    3.5417 H         1 <0>         0.0542
     41 H11         5.8204   -4.1243    3.9458 H         1 <0>         0.0551
     42 H12         4.4455   -3.7924    5.8707 H         1 <0>         0.3908
     43 H13        11.2054   -3.8447   -0.8274 H         1 <0>         0.3909
     44 H14         4.8830   -1.3462   -4.4161 H         1 <0>         0.4323
@<TRIPOS>BOND
     1    1    6 ar
     2    1    2 ar
     3    1   31 1
     4    2    3 ar
     5    2   32 1
     6    3    4 ar
     7    3   30 1
     8    4    5 ar
     9    4    8 1
    10    5    6 ar
    11    5    7 1
    12    6   33 1
    13    8   24 ar
    14    8    9 ar
    15    9   10 ar
    16    9   34 1
    17   10   18 1
    18   10   11 ar
    19   11   12 1
    20   11   23 ar
    21   12   17 ar
    22   12   13 ar
    23   13   14 ar
    24   13   35 1
    25   14   15 ar
    26   14   22 1
    27   15   16 ar
    28   15   36 1
    29   16   17 ar
    30   16   37 1
    31   17   18 1
    32   18   19 1
    33   19   20 1
    34   19   38 1
    35   19   39 1
    36   20   21 1
    37   20   40 1
    38   20   41 1
    39   21   42 1
    40   22   43 1
    41   23   28 1
    42   23   24 ar
    43   24   25 1
    44   25   26 2
    45   25   27 am
    46   27   28 am
    47   27   44 1
    48   28   29 2
@<TRIPOS>MOLECULE
CHEMBL378756
   36    40     0     0     0
SMALL
USER_CHARGES

@<TRIPOS>ATOM
      1 C1         -0.0167    1.3792    0.0096 C.ar      1 <0>        -0.1036
      2 C2          1.1685    2.0927    0.0021 C.ar      1 <0>        -0.1228
      3 C3          2.3774    1.4276   -0.0134 C.ar      1 <0>        -0.0949
      4 C4          2.4028    0.0333   -0.0211 C.ar      1 <0>        -0.0728
      5 C5          1.2047   -0.6805   -0.0130 C.ar      1 <0>        -0.0696
      6 C6          0.0021   -0.0041    0.0020 C.ar      1 <0>        -0.1186
      7 C7          3.6973   -0.6869   -0.0382 C.ar      1 <0>         0.0547
      8 C8          4.6845   -0.3463   -0.9646 C.ar      1 <0>        -0.0402
      9 C9          5.8858   -1.0198   -0.9754 C.ar      1 <0>        -0.0872
     10 C10         6.1778   -2.0650   -0.0732 C.ar      1 <0>        -0.0006
     11 C11         7.5125   -2.6829   -0.2188 C.ar      1 <0>        -0.0778
     12 C12         8.0509   -3.7394    0.5502 C.ar      1 <0>        -0.1115
     13 C13         9.3171   -4.2145    0.2973 C.ar      1 <0>         0.1060
     14 C14        10.0990   -3.6710   -0.7167 C.ar      1 <0>        -0.1066
     15 C15         9.5952   -2.6376   -1.4823 C.ar      1 <0>        -0.0659
     16 C16         8.3256   -2.1569   -1.2338 C.ar      1 <0>        -0.1076
     17 S1          7.3456   -0.8769   -1.9750 S.3       1 <0>         0.0850
     18 O1          9.8126   -5.2320    1.0514 O.3       1 <0>        -0.4937
     19 C17         5.1733   -2.4022    0.8607 C.ar      1 <0>        -0.1029
     20 C18         3.9504   -1.7160    0.8793 C.ar      1 <0>        -0.1301
     21 C19         3.1640   -2.3211    1.9706 C.2       1 <0>         0.5769
     22 O2          2.0394   -1.9976    2.2982 O.2       1 <0>        -0.4430
     23 N1          3.8999   -3.2914    2.5423 N.am      1 <0>        -0.6775
     24 C20         5.0966   -3.4075    1.9376 C.2       1 <0>         0.5798
     25 O3          5.9702   -4.1971    2.2362 O.2       1 <0>        -0.4511
     26 H1         -0.9604    1.9042    0.0260 H         1 <0>         0.1254
     27 H2          1.1476    3.1725    0.0081 H         1 <0>         0.1276
     28 H3          3.3020    1.9857   -0.0199 H         1 <0>         0.1267
     29 H4          1.2181   -1.7604   -0.0192 H         1 <0>         0.1214
     30 H5         -0.9264   -0.5557    0.0079 H         1 <0>         0.1267
     31 H6          4.5056    0.4472   -1.6751 H         1 <0>         0.1567
     32 H7          7.4634   -4.1774    1.3436 H         1 <0>         0.1746
     33 H8         11.0915   -4.0535   -0.9035 H         1 <0>         0.1456
     34 H9         10.1925   -2.2075   -2.2727 H         1 <0>         0.1430
     35 H10         9.6221   -6.1120    0.6986 H         1 <0>         0.3940
     36 H11         3.6042   -3.8396    3.2858 H         1 <0>         0.4338
@<TRIPOS>BOND
     1    1    6 ar
     2    1    2 ar
     3    1   26 1
     4    2    3 ar
     5    2   27 1
     6    3    4 ar
     7    3   28 1
     8    4    5 ar
     9    4    7 1
    10    5    6 ar
    11    5   29 1
    12    6   30 1
    13    7   20 ar
    14    7    8 ar
    15    8    9 ar
    16    8   31 1
    17    9   17 1
    18    9   10 ar
    19   10   11 1
    20   10   19 ar
    21   11   16 ar
    22   11   12 ar
    23   12   13 ar
    24   12   32 1
    25   13   14 ar
    26   13   18 1
    27   14   15 ar
    28   14   33 1
    29   15   16 ar
    30   15   34 1
    31   16   17 1
    32   18   35 1
    33   19   24 1
    34   19   20 ar
    35   20   21 1
    36   21   22 2
    37   21   23 am
    38   23   24 am
    39   23   36 1
    40   24   25 2
@<TRIPOS>MOLECULE
CHEMBL520182
   35    38     0     0     0
SMALL
USER_CHARGES

@<TRIPOS>ATOM
      1 C1         -0.0168    1.3862    0.0097 C.ar      1 <0>        -0.0984
      2 C2          1.1609    2.1025    0.0023 C.ar      1 <0>        -0.1207
      3 C3          2.3825    1.4375   -0.0134 C.ar      1 <0>         0.1472
      4 C4          2.4030    0.0342   -0.0211 C.ar      1 <0>        -0.1023
      5 C5          1.2070   -0.6819   -0.0137 C.ar      1 <0>        -0.0754
      6 C6          0.0021   -0.0041    0.0020 C.ar      1 <0>         0.0663
      7 O1         -1.1671   -0.6986    0.0094 O.3       1 <0>        -0.4946
      8 C7          3.8205   -0.3634   -0.0373 C.ar      1 <0>        -0.0392
      9 C8          4.5699    0.8308   -0.0384 C.ar      1 <0>         0.1786
     10 N1          3.6904    1.8941   -0.0239 N.pl3     1 <0>        -0.4879
     11 C9          4.0840    3.3052   -0.0207 C.3       1 <0>         0.1293
     12 C10         4.2357    3.7891    1.4228 C.3       1 <0>        -0.2007
     13 C11         4.6405    5.2407    1.4261 C.2       1 <0>         0.4971
     14 O2          4.7935    5.8333    0.3716 O.co2     1 <0>        -0.6960
     15 O3          4.8151    5.8225    2.4833 O.co2     1 <0>        -0.6933
     16 C12         5.9601    0.7720   -0.0525 C.ar      1 <0>        -0.1180
     17 C13         6.6119   -0.4454   -0.0655 C.ar      1 <0>        -0.0114
     18 C14         5.8862   -1.6303   -0.0646 C.ar      1 <0>        -0.1840
     19 C15         4.4779   -1.5935   -0.0510 C.ar      1 <0>        -0.0868
     20 C16         4.0364   -3.0012   -0.0545 C.2       1 <0>         0.5806
     21 O4          2.8830   -3.3824   -0.0452 O.2       1 <0>        -0.4626
     22 N2          5.1243   -3.7922   -0.0704 N.am      1 <0>        -0.6829
     23 C17         6.2528   -3.0602   -0.0757 C.2       1 <0>         0.5864
     24 O5          7.3844   -3.5020   -0.0893 O.2       1 <0>        -0.4720
     25 H1         -0.9617    1.9091    0.0260 H         1 <0>         0.1365
     26 H2          1.1351    3.1822    0.0083 H         1 <0>         0.1356
     27 H3          1.2216   -1.7618   -0.0199 H         1 <0>         0.1431
     28 H4         -1.5137   -0.8947   -0.8718 H         1 <0>         0.3845
     29 H5          5.0335    3.4188   -0.5437 H         1 <0>         0.0943
     30 H6          3.3191    3.8969   -0.5237 H         1 <0>         0.0946
     31 H7          3.2861    3.6755    1.9458 H         1 <0>         0.0654
     32 H8          5.0006    3.1974    1.9258 H         1 <0>         0.0651
     33 H9          6.5345    1.6866   -0.0537 H         1 <0>         0.1468
     34 H10         7.6913   -0.4767   -0.0768 H         1 <0>         0.1476
     35 H11         5.0985   -4.7618   -0.0756 H         1 <0>         0.4274
@<TRIPOS>BOND
     1    1    6 ar
     2    1    2 ar
     3    1   25 1
     4    2    3 ar
     5    2   26 1
     6    3   10 1
     7    3    4 ar
     8    4    5 ar
     9    4    8 1
    10    5    6 ar
    11    5   27 1
    12    6    7 1
    13    7   28 1
    14    8   19 ar
    15    8    9 ar
    16    9   10 1
    17    9   16 ar
    18   10   11 1
    19   11   12 1
    20   11   29 1
    21   11   30 1
    22   12   13 1
    23   12   31 1
    24   12   32 1
    25   13   14 2
    26   13   15 1
    27   16   17 ar
    28   16   33 1
    29   17   18 ar
    30   17   34 1
    31   18   23 1
    32   18   19 ar
    33   19   20 1
    34   20   21 2
    35   20   22 am
    36   22   23 am
    37   22   35 1
    38   23   24 2
@<TRIPOS>MOLECULE
CHEMBL471163
   47    51     0     0     0
SMALL
USER_CHARGES

@<TRIPOS>ATOM
      1 C1         -0.0167    1.3790    0.0096 C.ar      1 <0>        -0.0835
      2 C2          1.1680    2.0931    0.0021 C.ar      1 <0>        -0.1043
      3 C3          2.3785    1.4284   -0.0135 C.ar      1 <0>        -0.0036
      4 C4          2.4047    0.0329   -0.0212 C.ar      1 <0>        -0.0414
      5 C5          1.2056   -0.6814   -0.0131 C.ar      1 <0>        -0.0037
      6 C6          0.0021   -0.0041    0.0020 C.ar      1 <0>        -0.1039
      7 Cl1         1.2269   -2.4173   -0.0233 Cl        1 <0>        -0.0466
      8 C7          3.6990   -0.6866   -0.0385 C.ar      1 <0>         0.0553
      9 C8          4.3172   -1.0365    1.1608 C.ar      1 <0>        -0.0973
     10 C9          5.5303   -1.7113    1.1570 C.ar      1 <0>         0.1769
     11 C10         6.1436   -2.0466   -0.0687 C.ar      1 <0>        -0.0257
     12 C11         7.3954   -2.7439    0.2692 C.ar      1 <0>        -0.0960
     13 C12         8.4152   -3.3067   -0.4977 C.ar      1 <0>        -0.0730
     14 C13         9.4915   -3.9072    0.1280 C.ar      1 <0>         0.0777
     15 C14         9.5569   -3.9500    1.5167 C.ar      1 <0>        -0.0946
     16 C15         8.5535   -3.3970    2.2825 C.ar      1 <0>        -0.1249
     17 C16         7.4627   -2.7879    1.6702 C.ar      1 <0>         0.1432
     18 N1          6.3366   -2.1645    2.1825 N.pl3     1 <0>        -0.4957
     19 C17         6.0430   -2.0082    3.6092 C.3       1 <0>         0.1150
     20 C18         5.2400   -3.2147    4.0998 C.3       1 <0>        -0.1437
     21 C19         4.9333   -3.0514    5.5898 C.3       1 <0>         0.0801
     22 O1          4.1833   -4.1782    6.0480 O.3       1 <0>        -0.5719
     23 O2         10.4881   -4.4577   -0.6157 O.3       1 <0>        -0.4928
     24 C20         5.5309   -1.6996   -1.2735 C.ar      1 <0>        -0.0795
     25 C21         4.2979   -1.0200   -1.2595 C.ar      1 <0>        -0.1494
     26 C22         3.9316   -0.8164   -2.6717 C.2       1 <0>         0.5805
     27 O3          2.9288   -0.2579   -3.0706 O.2       1 <0>        -0.4518
     28 N2          4.8926   -1.3513   -3.4461 N.am      1 <0>        -0.6799
     29 C23         5.8745   -1.8840   -2.6965 C.2       1 <0>         0.5800
     30 O4          6.8706   -2.4357   -3.1201 O.2       1 <0>        -0.4548
     31 Cl2         3.8641    2.3266   -0.0240 Cl        1 <0>        -0.0482
     32 H1         -0.9605    1.9037    0.0260 H         1 <0>         0.1461
     33 H2          1.1462    3.1729    0.0082 H         1 <0>         0.1447
     34 H3         -0.9265   -0.5555    0.0083 H         1 <0>         0.1448
     35 H4          3.8492   -0.7804    2.0998 H         1 <0>         0.1438
     36 H5          8.3641   -3.2737   -1.5760 H         1 <0>         0.1478
     37 H6         10.4009   -4.4209    1.9987 H         1 <0>         0.1397
     38 H7          8.6140   -3.4364    3.3601 H         1 <0>         0.1323
     39 H8          6.9769   -1.9421    4.1673 H         1 <0>         0.0972
     40 H9          5.4626   -1.0985    3.7632 H         1 <0>         0.0951
     41 H10         4.3060   -3.2807    3.5417 H         1 <0>         0.0794
     42 H11         5.8204   -4.1243    3.9458 H         1 <0>         0.0802
     43 H12         5.8672   -2.9854    6.1479 H         1 <0>         0.0497
     44 H13         4.3529   -2.1418    5.7438 H         1 <0>         0.0497
     45 H14         3.9530   -4.1421    6.9865 H         1 <0>         0.3849
     46 H15        11.2054   -3.8447   -0.8274 H         1 <0>         0.3903
     47 H16         4.8830   -1.3462   -4.4161 H         1 <0>         0.4320
@<TRIPOS>BOND
     1    1    6 ar
     2    1    2 ar
     3    1   32 1
     4    2    3 ar
     5    2   33 1
     6    3    4 ar
     7    3   31 1
     8    4    5 ar
     9    4    8 1
    10    5    6 ar
    11    5    7 1
    12    6   34 1
    13    8   25 ar
    14    8    9 ar
    15    9   10 ar
    16    9   35 1
    17   10   18 1
    18   10   11 ar
    19   11   12 1
    20   11   24 ar
    21   12   17 ar
    22   12   13 ar
    23   13   14 ar
    24   13   36 1
    25   14   15 ar
    26   14   23 1
    27   15   16 ar
    28   15   37 1
    29   16   17 ar
    30   16   38 1
    31   17   18 1
    32   18   19 1
    33   19   20 1
    34   19   39 1
    35   19   40 1
    36   20   21 1
    37   20   41 1
    38   20   42 1
    39   21   22 1
    40   21   43 1
    41   21   44 1
    42   22   45 1
    43   23   46 1
    44   24   29 1
    45   24   25 ar
    46   25   26 1
    47   26   27 2
    48   26   28 am
    49   28   29 am
    50   28   47 1
    51   29   30 2
@<TRIPOS>MOLECULE
CHEMBL255427
   63    68     0     0     0
SMALL
USER_CHARGES

@<TRIPOS>ATOM
      1 C1         -0.0178    1.4608    0.0101 C.3       1 <0>         0.0788
      2 N1          0.0021   -0.0041    0.0020 N.pl3     1 <0>        -0.5015
      3 C2          0.0074   -0.7868   -1.1362 C.ar      1 <0>         0.1658
      4 C3         -0.0033   -0.4622   -2.4857 C.ar      1 <0>        -0.0998
      5 C4          0.0054   -1.4643   -3.4545 C.ar      1 <0>         0.0593
      6 C5          0.0255   -2.8109   -3.0713 C.ar      1 <0>        -0.1426
      7 C6          0.0369   -3.1507   -1.7050 C.ar      1 <0>        -0.0836
      8 C7          0.0277   -2.1412   -0.7407 C.ar      1 <0>        -0.0242
      9 C8          0.0345   -2.1458    0.7308 C.ar      1 <0>        -0.1228
     10 C9          0.0242   -0.8014    1.1348 C.ar      1 <0>         0.1826
     11 C10         0.0335   -0.4963    2.4912 C.ar      1 <0>        -0.2256
     12 C11         0.0566   -1.5115    3.4301 C.ar      1 <0>         0.1476
     13 C12         0.0708   -2.8474    3.0272 C.ar      1 <0>         0.0550
     14 C13         0.0521   -3.1652    1.6841 C.ar      1 <0>        -0.0311
     15 O1          0.0936   -3.8382    3.9596 O.3       1 <0>        -0.4794
     16 O2          0.0661   -1.2059    4.7545 O.3       1 <0>        -0.2957
     17 C14         0.0511    0.1805    5.1006 C.3       1 <0>         0.0586
     18 C15         0.0647    0.3262    6.6235 C.3       1 <0>        -0.1496
     19 C16         0.0486    1.8106    6.9940 C.3       1 <0>        -0.0012
     20 N2          0.0617    1.9505    8.4563 N.4       1 <0>        -0.3937
     21 C17         1.3716    1.5106    9.0012 C.3       1 <0>        -0.0092
     22 C18         1.4396    2.2203   10.3768 C.3       1 <0>        -0.1458
     23 C19         0.7882    3.5928   10.0903 C.3       1 <0>        -0.1457
     24 C20        -0.0745    3.3740    8.8337 C.3       1 <0>        -0.0081
     25 C21         0.0571   -4.6245   -1.6549 C.2       1 <0>         0.5805
     26 O3          0.0709   -5.3000   -0.6450 O.2       1 <0>        -0.4584
     27 N3          0.0572   -5.0954   -2.9150 N.am      1 <0>        -0.6793
     28 C22         0.0391   -4.0876   -3.8059 C.2       1 <0>         0.5769
     29 O4          0.0343   -4.2101   -5.0149 O.2       1 <0>        -0.4413
     30 C23        -0.0071   -1.1042   -4.8911 C.ar      1 <0>        -0.0597
     31 C24         1.0764   -0.4295   -5.4535 C.ar      1 <0>        -0.0857
     32 C25         1.0592   -0.0972   -6.7924 C.ar      1 <0>        -0.1151
     33 C26        -0.0299   -0.4316   -7.5778 C.ar      1 <0>        -0.0928
     34 C27        -1.1080   -1.1000   -7.0271 C.ar      1 <0>        -0.1079
     35 C28        -1.1007   -1.4436   -5.6891 C.ar      1 <0>         0.0001
     36 Cl1        -2.4512   -2.2896   -5.0005 Cl        1 <0>        -0.0614
     37 H1          1.0048    1.8381    0.0023 H         1 <0>         0.0752
     38 H2         -0.5450    1.8219   -0.8730 H         1 <0>         0.0896
     39 H3         -0.5280    1.8123    0.9069 H         1 <0>         0.0829
     40 H4         -0.0188    0.5747   -2.7874 H         1 <0>         0.1466
     41 H5          0.0230    0.5349    2.8122 H         1 <0>         0.1343
     42 H6          0.0647   -4.1989    1.3717 H         1 <0>         0.1594
     43 H7         -0.7831   -4.1366    4.2378 H         1 <0>         0.3879
     44 H8          0.9304    0.6692    4.6809 H         1 <0>         0.0735
     45 H9         -0.8494    0.6454    4.6991 H         1 <0>         0.0733
     46 H10        -0.8146   -0.1626    7.0432 H         1 <0>         0.0997
     47 H11         0.9651   -0.1388    7.0250 H         1 <0>         0.0999
     48 H12         0.9279    2.2993    6.5744 H         1 <0>         0.1328
     49 H13        -0.8518    2.2755    6.5926 H         1 <0>         0.1333
     50 H14         1.3926    0.4279    9.1254 H         1 <0>         0.1370
     51 H15         2.1866    1.8409    8.3572 H         1 <0>         0.1345
     52 H16         0.8671    1.6700   11.1235 H         1 <0>         0.0989
     53 H17         2.4744    2.3437   10.6964 H         1 <0>         0.1174
     54 H18         0.1634    3.8976   10.9298 H         1 <0>         0.1058
     55 H19         1.5553    4.3426    9.8968 H         1 <0>         0.1041
     56 H20         0.2828    4.0089    8.0229 H         1 <0>         0.1308
     57 H21        -1.1173    3.6014    9.0550 H         1 <0>         0.1331
     58 H22         0.0687   -6.0365   -3.1500 H         1 <0>         0.4335
     59 H23         1.9271   -0.1675   -4.8420 H         1 <0>         0.1342
     60 H24         1.8977    0.4255   -7.2284 H         1 <0>         0.1346
     61 H25        -0.0382   -0.1690   -8.6254 H         1 <0>         0.1365
     62 H26        -1.9554   -1.3576   -7.6452 H         1 <0>         0.1384
     63 H27        -0.6856    1.4092    8.8647 H         1 <0>         0.4286
@<TRIPOS>BOND
     1    1    2 1
     2    1   37 1
     3    1   38 1
     4    1   39 1
     5    2   10 1
     6    2    3 1
     7    3    8 ar
     8    3    4 ar
     9    4    5 ar
    10    4   40 1
    11    5    6 ar
    12    5   30 1
    13    6   28 1
    14    6    7 ar
    15    7    8 ar
    16    7   25 1
    17    8    9 1
    18    9   14 ar
    19    9   10 ar
    20   10   11 ar
    21   11   12 ar
    22   11   41 1
    23   12   13 ar
    24   12   16 1
    25   13   14 ar
    26   13   15 1
    27   14   42 1
    28   15   43 1
    29   16   17 1
    30   17   18 1
    31   17   44 1
    32   17   45 1
    33   18   19 1
    34   18   46 1
    35   18   47 1
    36   19   20 1
    37   19   48 1
    38   19   49 1
    39   20   24 1
    40   20   21 1
    41   20   63 1
    42   21   22 1
    43   21   50 1
    44   21   51 1
    45   22   23 1
    46   22   52 1
    47   22   53 1
    48   23   24 1
    49   23   54 1
    50   23   55 1
    51   24   56 1
    52   24   57 1
    53   25   26 2
    54   25   27 am
    55   27   28 am
    56   27   58 1
    57   28   29 2
    58   30   35 ar
    59   30   31 ar
    60   31   32 ar
    61   31   59 1
    62   32   33 ar
    63   32   60 1
    64   33   34 ar
    65   33   61 1
    66   34   35 ar
    67   34   62 1
    68   35   36 1
